[Format]      =  1
[Precision]   =  1e-008
[MinAngle]    =  30
[DoSmartMesh] =  1
[Depth]       =  20
[LengthUnits] =  meters
[ProblemType] =  planar
[Coordinates] =  cartesian
[PrevSoln] = ""
[dT] = 0
[Comment]     =  "Add comments here."
[PointProps]   = 0
[BdryProps]   = 2
  <BeginBdry>
    <BdryName> = "Outer Boundary"
    <BdryType> = 2
    <Tset> = 0
    <qs>   = 0
    <beta> = 0
    <h>    = 5
    <Tinf> = 300
  <EndBdry>
  <BeginBdry>
    <BdryName> = "Inner Boundary"
    <BdryType> = 2
    <Tset> = 0
    <qs>   = 0
    <beta> = 0
    <h>    = 10
    <Tinf> = 800
  <EndBdry>
[BlockProps]  = 1
  <BeginBlock>
    <BlockName> = "Brick"
    <Kx> = 0.69999999999999996
    <Ky> = 0.69999999999999996
    <Kt> = 0
    <qv> = 0
  <EndBlock>
[ConductorProps]  = 0
[NumPoints] = 6
0	1	0	0	0
0	2	0	0	0
2	2	0	0	0
2	0	0	0	0
1	0	0	0	0
1	1	0	0	0
[NumSegments] = 6
0	1	-1	0	0	0	0
1	2	-1	1	0	0	0
2	3	-1	1	0	0	0
3	4	-1	0	0	0	0
4	5	-1	2	0	0	0
5	0	-1	2	0	0	0
[NumArcSegments] = 0
[NumHoles] = 0
[NumBlockLabels] = 1
1.5	1.5	1	0.050000000000000003	0	0
[Solution]
3469
0	1	769.0786381686388	-2
0.0026666666666666666	1	769.0785815366097	-2
0	1.0026666666666666	767.90073704378437	-2
0.010437499999999999	1	769.07783620488453	-2
0.005609528335282131	1.0056095283352822	766.60069819358637	-2
0	1.0104375000000001	764.4688735378204	-2
0.018208333333333333	1	769.07629155408347	-2
0.014322916666666666	1.0082264921547623	765.44354379151184	-2
0.0079318994965881795	1.0143229166666667	762.75271919871636	-2
0	1.0182083333333334	761.03795681065981	-2
0.033749999999999995	1	769.07052424638164	-2
0.025979166666666664	1.0087010042583915	765.23013858462832	-2
0.018908642046437538	1.0194319447368094	760.49444198754679	-2
0.0087240983733820939	1.0259791666666667	757.60748419815786	-2
0	1.0337499999999999	754.18021396220627	-2
0.064833333333333326	1	769.04650044068194	-2
0.043817279928959535	1.0168116016270625	761.63577470590928	-2
0.031568838218934428	1.0200788151364937	760.20219868174513	-2
0.019660481007363565	1.0317963734996527	755.03766928718392	-2
0.016823148684557716	1.0438543130311211	749.72065217860586	-2
0	1.0492916666666665	747.32752417445761	-2
0.095916666666666664	1	769.00533480681236	-2
0.070460075941163519	1.0285757513636753	756.4071278357552	-2
0.04293227485369553	1.0380864803400551	752.24447332572367	-2
0.029782863006275934	1.0405410467982221	751.17368056771647	-2
0.012410905719696632	1.0575509007974779	743.68633150338223	-2
0.026564612479426358	1.054955329688442	744.82168301455636	-2
0	1.0648333333333331	740.4813503758138	-2
0.127	1	768.95466034289245	-2
0.11145833333333334	1.0242308171557497	758.24913867689531	-2
0.063070373002116903	1.0517805579703219	746.17499317614283	-2
0.10397582873384018	1.052028083707188	745.97256891376685	-2
0.04029364573762266	1.0603998070268275	742.40997781995543	-2
0.012157093543918092	1.0713350536520232	737.61733524215754	-2
0.023649947175934966	1.0789496190323375	734.25976358751029	-2
0	1.0803749999999996	733.64251164165978	-2
0.15808333333333333	1	768.87827433179848	-2
0.1309921600576518	1.0443946666723845	749.26303349634122	-2
0.083360537504459209	1.0787691170180533	734.2310668445831	-2
0.050431997410767121	1.0862380086562495	731.01973501826228	-2
0.12532584651014778	1.0759654038179971	735.3259538122129	-2
0.012336275084657452	1.0881458333333331	730.22323053673574	-2
0.028405459565787963	1.1031267761854306	723.62875473666645	-2
0	1.0959166666666664	726.81078594873111	-2
0.18916666666666665	1	768.79078943685295	-2
0.18595853955580877	1.0352665133299994	753.09898083475923	-2
0.1607291826615892	1.053402341852725	745.15618258459551	-2
0.10105896274088888	1.1081593454445196	721.23764674272479	-2
0.05686652419888355	1.1249917883511988	713.98319207315217	-2
0.15633618922009929	1.0841615735421646	731.55571060480986	-2
0.13489833808155799	1.1025098800394857	723.57279552735497	-2
0.013250250827618631	1.1032741751690778	723.57597265068841	-2
0.02102215047381488	1.1231774484392627	714.8406127945625	-2
0	1.1114583333333332	719.98811887205864	-2
0.22024999999999997	1	768.68885076468337	-2
0.21403362211134838	1.0282604329246987	756.0839278487457	-2
0.22329204330611432	1.0556753387265834	743.7944276154692	-2
0.19827457099965218	1.0684679351593234	738.26529369533296	-2
0.18311938449350643	1.0918516190063801	727.99117794674521	-2
0.096756566650751968	1.1406618582204804	706.98527972254271	-2
0.1276878603615198	1.1297908408694624	711.60061140144694	-2
0.038102213455500258	1.1407217451592799	707.13227662752047	-2
0.072708504833537635	1.1629467111861913	697.32348692481628	-2
0.17504011485260523	1.1277128887500083	712.20318858475105	-2
0	1.1269999999999998	713.17348594140913	-2
0.013684621752687001	1.1425416666666666	706.3669224829855	-2
0.2513333333333333	1	768.55334648953328	-2
0.26196970031848082	1.0276690182710468	756.0731160759301	-2
0.25138874323194482	1.0553592732691348	743.73286781728382	-2
0.22892652818628581	1.1011110917561922	723.51826471772688	-2
0.20107726033111059	1.1131586845879271	718.41818659059754	-2
0.097424978775867907	1.1770388494070074	691.06597648825687	-2
0.1256453812936959	1.173419274085475	692.48644803267746	-2
0.15241975793294438	1.1528106988354339	701.32863377008607	-2
0.027923958250445934	1.1688751404442757	694.84982414072147	-2
0.052670005519812255	1.1836918076925069	688.33572584558692	-2
0.068198962330663915	1.206733506386034	678.25823246907669	-2
0.18189662589732816	1.1566352143916876	699.40942631044049	-2
0.20279752892779826	1.1429378464199136	705.24546039407414	-2
0	1.1580833333333331	699.57777735118884	-2
0.28241666666666665	1	768.41493006449878	-2
0.29027685458475772	1.0364674210847089	751.90736208720023	-2
0.27635865724259218	1.0773999395302127	733.64223316780362	-2
0.25891025675225043	1.1057696574572555	721.14170483422379	-2
0.22484743450759898	1.1311791347232538	710.22230459761147	-2
0.095955534424895447	1.2054524584188151	678.68873228274197	-2
0.16399266840691346	1.1955428024518189	682.52093455184149	-2
0.13110381692980477	1.2082539648667834	677.24713044609484	-2
0	1.1891666666666665	686.02617260148497	-2
0.027224070177285654	1.1972713827354338	682.48111837375279	-2
0.043921961307056959	1.2202499999999998	672.46869445012476	-2
0.066470412147787178	1.2321890856528148	667.22215410731042	-2
0.20397611016045972	1.1765351902435288	690.44980837428955	-2
0.18932145709837073	1.1972657794788069	681.51521930762203	-2
0.2229105163031537	1.1577679973187442	698.49220361671701	-2
0.3135	1	768.2400459111966	-2
0.30930295975994515	1.0657693740014684	738.51730078791127	-2
0.32639767058479091	1.0338416615316801	752.79160457329999	-2
0.28625786956295618	1.1092007755312943	719.2850717202756	-2
0.2713768039191089	1.1324003096426893	709.13430314912284	-2
0.24532535619946666	1.1460358699830566	703.41351554236758	-2
0.11139626167566621	1.2336194673783503	666.37014911626068	-2
0.15674903509003363	1.2257045066203227	669.4440133168323	-2
0.13757701030781044	1.2497420022013674	659.18326300474666	-2
0	1.2202499999999998	672.52604342643235	-2
0.021960980653528476	1.2338426520011163	666.62233375291544	-2
0.045269364954924285	1.2449675826052393	661.7648621102469	-2
0.084131502470784117	1.2506026754751449	659.1754915773048	-2
0.21435751887235899	1.1994189602507677	680.2822930966222	-2
0.24586261311542304	1.1713297272295184	692.22628397188714	-2
0.20022130220386292	1.2201941366613069	671.3805623283248	-2
0.34458333333333335	1	768.04424599707352	-2
0.32240708269575552	1.0981557767803578	723.76233594776556	-2
0.35194188463973025	1.0734925124969195	734.50182610556283	-2
0.36012500000000003	1.0301587940653887	754.13718250087436	-2
0.30336745227895112	1.1308092617570067	709.38966640330636	-2
0.28615453438394334	1.1578212678542468	697.62686839751359	-2
0.11106839992129569	1.263470079300717	653.456045276042	-2
0.19057508304526405	1.2435083398244295	661.34533804216312	-2
0.16793152111379614	1.2546380620241457	656.77105579395766	-2
0.14338146382160727	1.2733183996932524	648.94437379456213	-2
0	1.2513333333333332	659.07791481200798	-2
0.024183626456311572	1.2591656097193868	655.6828549398931	-2
0.057494070424262723	1.2858791197548767	644.09555178676055	-2
0.086565597148102427	1.280135929360585	646.42885385809836	-2
0.24498001706075126	1.2020525922845866	678.71770316379184	-2
0.24060392511236905	1.2324750056051459	665.46208550609185	-2
0.27369549397735338	1.1875034107854647	684.68130625653305	-2
0.21047126650862757	1.2590242509088376	654.34267703396858	-2
0.37566666666666665	1	767.82545030367862	-2
0.33011104174974476	1.1351612712700034	707.01659255295431	-2
0.34923426314954104	1.1118754503319837	717.16285262324379	-2
0.37106125964378806	1.0546634979717506	742.82057466891399	-2
0.37130477520149452	1.092816871643765	725.43022689396821	-2
0.39524974353461451	1.0291756289130709	754.21126433459574	-2
0.31955975275153137	1.1601178308297613	696.04220063427124	-2
0.29917133193986728	1.2051339802273966	676.45003023722597	-2
0.12144050272941215	1.2873733771614349	643.07926005710783	-2
0.18813760112475525	1.2671484207759895	651.12484094678734	-2
0.16622811904950779	1.281538408463724	645.16254797274848	-2
0.1454441718081432	1.2975110315271696	638.51337768924088	-2
0	1.2824166666666665	645.69384796560325	-2
0.027915332034759436	1.2979583333333333	638.99281762886426	-2
0.051448066558681241	1.3133288716694982	632.35197968643524	-2
0.098488752969737775	1.3092992050290986	633.83993956343886	-2
0.27292682813088465	1.2215985275506405	669.69376308993606	-2
0.26463815910929217	1.2504332358724055	657.22880469223367	-2
0.24066326392992679	1.2743283546122335	647.25550097984114	-2
0.18962768270027749	1.2933518572155627	639.79454078637468	-2
0.22023182254978313	1.3113124543393411	631.62358376495877	-2
0.40674999999999994	1	767.58578934749414	-2
0.34846446306805878	1.157629594012352	696.59401195568387	-2
0.37845692692679467	1.1192213999114962	713.2977005021578	-2
0.40828375655167826	1.0529045457729045	743.10155116753879	-2
0.39041942119312212	1.0732469279556016	734.04027843470408	-2
0.40670650288585403	1.1178729776421863	713.33658184502485	-2
0.43303773468206413	1.0419415371808136	747.80737708342406	-2
0.32752250089925117	1.1926413216882581	681.43245190023288	-2
0.32327381989728071	1.2214160276727315	668.78983466511113	-2
0.28975575393821873	1.2465653089861077	658.43818582841368	-2
0.12811348036015313	1.3278903197725187	625.65214252428905	-2
0.15876843772931204	1.325245247840136	626.47744783884298	-2
0	1.3134999999999999	632.3663104003025	-2
0.02865926025795746	1.3321355935620685	624.37738244116736	-2
0.062074603503887237	1.3393503965185356	621.19856878144094	-2
0.098255236870680246	1.3461040320817319	618.12176698783924	-2
0.27420660453243301	1.278868905203989	644.67912586634702	-2
0.25414832187339337	1.3008784954261421	635.54434021843292	-2
0.18549423629322082	1.3404917067061743	619.6264400533413	-2
0.21941229076987792	1.3456037982482278	616.94537969642545	-2
0.25015382932621949	1.3303878294455265	622.92417717647515	-2
0.4378333333333333	1	767.28863091865742	-2
0.3537981355122638	1.1845888746982547	684.44160099016256	-2
0.37560889854827523	1.1678693803090598	691.41593692752622	-2
0.39796859754277925	1.1447710406709344	701.31678847130456	-2
0.43577277564569328	1.071630457124511	733.98368678089048	-2
0.4291834795286994	1.1007078296533102	720.70276764744972	-2
0.44284965603372206	1.1419019238026966	701.47495584430078	-2
0.46500956843965102	1.0657890220594624	736.11237368653792	-2
0.46476300590385727	1.0327638501374556	751.60239693361063	-2
0.3715405056157739	1.2138417453550578	670.99194596299822	-2
0.31502105697315824	1.2493073686026264	656.7108271795621	-2
0.35170146786632167	1.2449941029688081	657.72668915259771	-2
0.29905308716333762	1.270217243860214	647.92978870353977	-2
0.15937583547442544	1.3552278308548975	613.67659678904022	-2
0.1329249833369936	1.3693585292616128	607.94852161723963	-2
0	1.3445833333333332	619.10645553546942	-2
0.038071474559991117	1.3695318887891508	608.45829429400521	-2
0.071919478900521333	1.3718154629302859	607.35520323135813	-2
0.10771319782767159	1.3694748393235581	608.11717110836901	-2
0.3123981864171555	1.292891177551591	637.7765262233911	-2
0.29628436154092336	1.319134092519944	626.8070832541855	-2
0.19940605421398422	1.3632655851949294	609.72990006800524	-2
0.2520968733231273	1.3592480055444107	610.54808596388102	-2
0.22883029873525929	1.3764338046640243	603.65920326484547	-2
0.27767599333334447	1.3430303654927827	616.95044675814461	-2
0.46891666666666665	1	766.97604392991991	-2
0.39838993846612281	1.2080070731829304	672.86270899775548	-2
0.41282636997868294	1.1732795662625171	688.04346453142227	-2
0.45537851772426319	1.1148815330214126	713.54375219261703	-2
0.47616582161259574	1.0934686477027977	722.94344975372337	-2
0.47973266706832585	1.1320264828014819	704.92813538624148	-2
0.44487875321220138	1.1814838733964947	683.39482584244035	-2
0.47591393306891744	1.1700172462656311	687.58446317415667	-2
0.50472047016743526	1.063140266610249	736.49538656808272	-2
0.5	1	766.58824812331716	-2
0.50931726018071344	1.0310500146678818	751.63741799961554	-2
0.38417017354967903	1.2437781268105579	657.38195372744065	-2
0.33648335782382227	1.2737013245951567	645.53912925453915	-2
0.36899044791746599	1.2725465193823799	645.16693976697275	-2
0.16105785361017572	1.3901980005455399	598.81860820363249	-2
0.13023766235263237	1.4023955012584548	594.00105995922695	-2
0	1.3756666666666666	605.91026022752885	-2
0.053411943118497181	1.3941454132553575	597.99530619661539	-2
0.025318334386255498	1.3945675933598223	597.8951830163187	-2
0.098471268931550782	1.3929319151617272	598.25733730263903	-2
0.076362190502471117	1.4091557081088832	591.55935943302586	-2
0.34027789927426938	1.305970456934759	631.4092806968041	-2
0.32529959858150631	1.360922108177741	608.16406055467155	-2
0.34255405253581478	1.3361080343050535	618.34075323252921	-2
0.29622084931650949	1.3659956083468465	606.72177555845656	-2
0.19606548854614886	1.3897425344206227	598.5461981359382	-2
0.25918297870201951	1.3872921189194449	598.48058506725749	-2
0.21504576689405797	1.4043536708046021	592.06841080473407	-2
0.23878708691092607	1.4011778250193014	592.99796396535589	-2
0.41050633040926288	1.2326673345364076	661.52087709697616	-2
0.42586051636639322	1.208557339997093	671.79913077041442	-2
0.50446677007413809	1.1029385989588052	717.73106491583428	-2
0.50898426109413863	1.1414906399880831	699.57157611243929	-2
0.4491487684818935	1.2203096399712179	665.75362302899021	-2
0.47277199998298136	1.2092460883388112	669.87050762487036	-2
0.50910191911825275	1.1722349432147465	685.34748637823304	-2
0.50022568236542808	1.1998582706476655	673.05143040479606	-2
0.53888769154379967	1.0835503769696269	725.86535957099272	-2
0.537505035759687	1.0470613873779337	743.35976222441786	-2
0.53108333333333335	1	766.19754968882489	-2
0.41157607021361425	1.2612312719373142	648.84171804979712	-2
0.39527821141305824	1.2856877027642752	638.62036956405859	-2
0.37882761093031697	1.3100416542718649	628.53323997420216	-2
0.16987549039536892	1.4116114716897592	589.67428258647249	-2
0.1460942795972921	1.4314009370056644	581.63493052399929	-2
0.11343276808449193	1.4364973356388528	579.81371914749832	-2
0	1.4067499999999999	592.78221768265939	-2
0.052773366506684051	1.4231410643457179	585.78646672253251	-2
0.02306824130330374	1.4222916666666667	586.22594074142796	-2
0.080278503775312024	1.4426473560770237	577.47827095631044	-2
0.35093225204828871	1.3777369652183336	600.27803223630553	-2
0.31897372872529706	1.3985099983927005	592.34618037941186	-2
0.36806442271199735	1.3523152998638908	610.62755000690902	-2
0.28876763307976688	1.3945571844677616	594.76068892089575	-2
0.19296379548245929	1.4134052479091761	588.60200836500871	-2
0.25978617916294028	1.4141332625046581	587.12831583220395	-2
0.22899500852509536	1.4238255718549435	583.6321325650332	-2
0.43373878517056647	1.2387188983141462	658.06507509331675	-2
0.53328469518875976	1.122656762874843	707.50282660745643	-2
0.53874426738572845	1.1571454837493225	691.13266985414259	-2
0.4568455626925903	1.2452338972350785	654.32740346070818	-2
0.50168116718036337	1.2435579004028716	653.2433029069723	-2
0.53928918358933808	1.1862023932870305	677.63009644488568	-2
0.52376602717826493	1.2168196374396196	664.3126782898031	-2
0.56876921558384885	1.0659269421898787	733.39370755093717	-2
0.55960136454690079	1.1171903344226748	709.08571817177904	-2
0.58812361137764613	1.0947175360678993	718.75232261216161	-2
0.5621666666666667	1	765.68696123258655	-2
0.57696733645801457	1.0318118126427109	749.81313890191916	-2
0.42156343283469494	1.2849050953305714	638.08687121346247	-2
0.43860916381980641	1.2656790613827364	645.93855050958564	-2
0.41892227976043667	1.3111677789791376	626.71149340446129	-2
0.40823190161096862	1.3353011595340392	616.63222010036634	-2
0.1791194837450136	1.4328443719125652	580.6289881115041	-2
0.15078393764440384	1.4694781309482163	565.670069435242	-2
0.10130723992908063	1.4635705840869593	568.59997891561466	-2
0	1.4378333333333333	579.73430664692182	-2
0.036456319647385209	1.4670541118118521	567.47216813334342	-2
0.069911375119548244	1.4844797581228357	560.08895811689547	-2
0.35487614219108521	1.4113116712357765	585.9314328871975	-2
0.37969072181153335	1.3883540626522022	594.87063245750676	-2
0.30401977780824468	1.4209277178953144	583.27062767037262	-2
0.32533483368426258	1.4374153856724656	575.78876252122507	-2
0.39266485715196792	1.3642738019019847	604.70442973027593	-2
0.27853852712566185	1.433346806832634	578.64300333438155	-2
0.20712728303798622	1.4453128071445036	574.99309036595241	-2
0.25343661678274587	1.4402195404556826	576.295710804755	-2
0.56089142313115836	1.1440377677260201	696.32096651782047	-2
0.56740839098246243	1.1788599753519109	679.69990044693327	-2
0.47377720068032003	1.2786920582656984	638.79279720908426	-2
0.5125495929251731	1.2703010895031808	640.78037749359271	-2
0.54168321543847187	1.2675569896739189	640.55051695056795	-2
0.55000003939036191	1.239501179509648	652.74008277803023	-2
0.55751492060881702	1.2088391650455719	666.33130603239738	-2
0.60209728343993074	1.0562972575962655	737.02867778067696	-2
0.58286862860268474	1.130647055772499	701.68476325199947	-2
0.62325540347635144	1.1038991706773631	712.70983503459922	-2
0.59325000000000006	1	765.16489487648084	-2
0.60879166666666662	1.0264013977216013	751.66101739969042	-2
0.44264481603874628	1.2995942957303221	630.866785736932	-2
0.44663866514166523	1.3378797748467846	614.06023595218858	-2
0.41964174994592862	1.3687942444481891	601.81217260033918	-2
0.18555907383602172	1.4671006718904758	566.21521443995459	-2
0.13576731851058796	1.4944010464301465	555.46947516642604	-2
0.17180162358690995	1.4991271448676866	553.10213353602342	-2
0.10671764342724811	1.4927376331075164	556.42147935679304	-2
0	1.4689166666666666	566.74608670715111	-2
0	1.5	553.83039789846191	-2
0.037838887107815078	1.5052273342018034	551.61104184574185	-2
0.069962762249719715	1.5093841896829061	549.76553450015683	-2
0.094153562256414275	1.5138965590368494	547.75401208032667	-2
0.36423713902377092	1.4437953116092723	571.98876620748274	-2
0.39512267093564279	1.4229346670467893	579.72836308931244	-2
0.41582280191270954	1.399687025266904	588.80044630422913	-2
0.30030272446863321	1.4476177593002646	572.15758446087682	-2
0.34266914523035186	1.4552032423269683	567.86085702830781	-2
0.31992698473865516	1.464041419497778	564.8022751194942	-2
0.27589653532827568	1.4592381229378404	567.87043639516253	-2
0.25251749883813474	1.4696356864117111	564.02686129801202	-2
0.21866224226143374	1.4783007924854976	561.04081721406556	-2
0.58296792161440714	1.1572641406860942	689.04477043669351	-2
0.58905898284685598	1.2075723942512162	665.19575133870899	-2
0.60312164523014589	1.1746511039868011	679.7652826968573	-2
0.4988393021404483	1.2957048051373874	630.1767348721213	-2
0.47589158370679241	1.3154771268120815	622.56071043588088	-2
0.5290803507093873	1.2939665683385009	629.45926688036627	-2
0.56665770374155033	1.2956869015330688	626.61839951978982	-2
0.59083117061444801	1.2668657199724689	638.03730248570446	-2
0.59710683591653735	1.2370050029688293	651.20001524702229	-2
0.6323211365822401	1.0567745574759735	735.67881286069849	-2
0.60625981825394537	1.1438685243771194	694.21024397186204	-2
0.64656049972742247	1.0834381965967439	721.71853646974466	-2
0.63120197773516018	1.1338763441456656	697.68431627302539	-2
0.65292303582974665	1.1129330271154099	706.69978071721971	-2
0.6243333333333333	1	764.5576302262956	-2
0.64185586037012254	1.028090099031864	749.82394667334529	-2
0.45484101316423975	1.365191017424908	601.96743890628636	-2
0.47748095957243486	1.3478527559527018	608.43300978811749	-2
0.44606740787218002	1.3923241398848034	590.74666566234418	-2
0.13436548783143906	1.5234645189872329	543.46931277665863	-2
0.1962727101958989	1.5173031397174592	545.24112628369221	-2
0.1717948821775164	1.5354700548134816	538.10138222733076	-2
0	1.5310833333333334	540.98546188880528	-2
0.052562720665199958	1.5272019309770308	542.4832790391132	-2
0.030054969736366927	1.5410970857507289	536.82613731107801	-2
0.078412430332505806	1.5328114486189857	540.04980908147922	-2
0.10870721228259247	1.5420156270230525	536.05328119428941	-2
0.39353539584306207	1.4668321238972684	561.41447717690994	-2
0.36852328471245177	1.4808184331440228	556.42989833797253	-2
0.41075562844572416	1.4489346995157579	568.27208988811606	-2
0.43712907305138365	1.4214075371801858	578.81188368818346	-2
0.2965197728972081	1.4743831137128751	561.08624592716956	-2
0.33890906074331911	1.4793109382803995	557.93792345321913	-2
0.31675028018973361	1.489433480336509	554.33853586213547	-2
0.27315188172199073	1.4846773750884446	557.34644202051834	-2
0.24627836802458486	1.5001008714426263	551.50619322843193	-2
0.22675550594418067	1.5173087941079828	544.74915492085961	-2
0.62198215655508926	1.1935141419075652	669.77163045366706	-2
0.62256358003883316	1.2201823820776825	657.3167576001722	-2
0.63209167542935452	1.1645454656512582	682.85747664167593	-2
0.51627034117489645	1.3350329652779644	612.12298392902198	-2
0.55060926119152287	1.3374418726322819	609.21896180876627	-2
0.60633051027868823	1.3044138432252217	620.26009733144429	-2
0.58451809384540865	1.3315126795505283	609.77499663799802	-2
0.62372367752657287	1.2832691308760187	628.49278031461608	-2
0.62810676995844616	1.2562430392611166	640.37441715572947	-2
0.67063201763990332	1.0444615800326711	740.3745808356266	-2
0.67547647003060562	1.0743749160781213	724.80872942702933	-2
0.65589200308502571	1.142959883867579	691.77451188409816	-2
0.68242689232744957	1.121917013461003	700.41533715434718	-2
0.65541666666666654	1	763.85619893408182	-2
0.47272958056912262	1.3859604099858291	592.30585238244271	-2
0.49718940875788548	1.3735876448896638	596.44138232322985	-2
0.4675070731374758	1.4231148562420761	576.81550185015317	-2
0.13789151421473059	1.5553611104005904	530.31888860957406	-2
0.21150954423283044	1.5419095942888084	534.8907070593358	-2
0.17048790713043194	1.5614831325550951	527.44680666372051	-2
0.19606779952079742	1.5663879773704024	525.0930364362822	-2
0	1.5621666666666667	528.21056543553959	-2
0.051264979538878902	1.5610118906388284	528.59111178286571	-2
0.027438675358355528	1.5777083333333335	521.81779671875177	-2
0.081803740581841727	1.5700697280818314	524.73680358060676	-2
0.12214350285741579	1.5843300880047593	518.61730028035686	-2
0.40496270272520596	1.4931121392507105	550.14504319144032	-2
0.4218655397266094	1.4711478506139819	558.61395819897973	-2
0.38832930382949754	1.5137833842539679	542.19970234279515	-2
0.36226847653659178	1.5187637064943236	540.97466428415555	-2
0.33979441646877734	1.5036562367698216	547.8470269832394	-2
0.43557959292229487	1.4481441313355088	567.65864969223855	-2
0.46130220538512851	1.4480779647445596	566.62445737050496	-2
0.29377511929092304	1.4998223658634791	550.60182698129893	-2
0.31501947819004533	1.5145888234122176	543.99818976867778	-2
0.27032348258332856	1.5100551274230734	546.90842047935462	-2
0.25055231373825548	1.5257716356366267	540.8351464428091	-2
0.64865031860238709	1.1940991376832497	667.70683877105671	-2
0.673695221229755	1.2211843074152005	653.1093057168631	-2
0.66406453053808856	1.2500674902909297	640.49889719809437	-2
0.65855777654266634	1.1691324209537903	678.93213816218667	-2
0.53463712627912641	1.3681217640715646	596.87895961258369	-2
0.58007968759405637	1.3552311455292501	599.76458139782562	-2
0.61708194600886357	1.3225594755039596	611.53246409058818	-2
0.62751929189070066	1.3041172895922604	618.91458498623831	-2
0.60360617414907458	1.3605948670742576	595.91368354751796	-2
0.61711851633923676	1.3436510852971024	602.32149353345665	-2
0.64813754154763403	1.2956620470301998	621.12512051339365	-2
0.69031733330940903	1.0264247437527854	748.95202168871299	-2
0.71203960387471554	1.0640581719710729	728.12329258042473	-2
0.69794035187790604	1.0947133133769338	713.12679730295815	-2
0.68014621984484203	1.1531501250337348	685.12952905406883	-2
0.71357305934296011	1.1186574113795276	699.78367391513279	-2
0.68649999999999989	1	763.00219597258342	-2
0.50480012826269538	1.4189971505812402	576.79979618222751	-2
0.51918126105832685	1.3932443070008924	586.96797400095875	-2
0.48841812401357881	1.44156523833966	568.12440294841781	-2
0.15506378235941268	1.5824708616464702	519.05072144398605	-2
0.228935043744282	1.562932743010317	525.99038037854473	-2
0.25342929163759986	1.5508640796406243	530.48782657969048	-2
0.17939414632712111	1.5841899790756451	518.06492856324655	-2
0.21290372217408382	1.6070885952824328	508.28621673000259	-2
0.23498738252927895	1.58955960934156	515.04312746789083	-2
0	1.5932500000000001	515.50698797364385	-2
0.056643212665321005	1.5896045221719937	516.88108662091338	-2
0.030917203890842838	1.6239790729682	502.97157884270229	-2
0.093061226377608164	1.5998678716270454	512.50488858756273	-2
0.12465213634296129	1.6206914753580473	503.81752634237984	-2
0.41530253260471195	1.5184599922330173	539.36031435002747	-2
0.43418392142451806	1.4959751208295768	547.88846542896761	-2
0.44958026212973434	1.4709745412626376	557.5930449838288	-2
0.38904063241893688	1.5403062864414414	531.33181743439036	-2
0.33836621849667953	1.5300509225106889	537.03952168085311	-2
0.35902094040925775	1.5428383893479038	531.22163908637663	-2
0.48160963575774612	1.4729232131600587	555.42083079147096	-2
0.27459742829699924	1.5357258916170737	536.25717697431969	-2
0.29770028231805656	1.5560415902311564	527.43016678070296	-2
0.33272934049390668	1.555876196782001	526.63397812924552	-2
0.68552736086984412	1.193130984478892	665.40880749291671	-2
0.70298416390105112	1.2294997324451613	646.71542859217129	-2
0.68455468405044484	1.2694762855275081	629.94369354011951	-2
0.54497593875878925	1.395637028714968	584.55788924567321	-2
0.56855512306287481	1.3849079755216194	587.72919506317805	-2
0.5893741281649878	1.3774994740006297	589.60176403238495	-2
0.63569234763798688	1.3324847106275215	605.83153617781124	-2
0.64902657059821089	1.316476941091981	611.84357330865646	-2
0.61117098590076979	1.3811345614926156	586.60324631646699	-2
0.62472226697125666	1.3639453728850408	593.00635879897266	-2
0.64174040266059151	1.3510032585708149	597.33474598036139	-2
0.67687375632810898	1.2966341770660574	618.37537109109041	-2
0.71758333333333324	1	762.06134835008879	-2
0.71551016532807232	1.0352655769078054	743.15432087360239	-2
0.73852744904214995	1.0529082234696021	732.44537315843274	-2
0.73627156429784524	1.0795093656871357	718.36282033169948	-2
0.73811991946323785	1.1039893157266729	705.39667024588812	-2
0.70499718704739289	1.1701579220312035	674.87653667768063	-2
0.72725333476644138	1.1437681946445606	686.00816137849927	-2
0.52740065243630296	1.4313613114822197	570.45705165211496	-2
0.53279870516667427	1.4565509362199418	559.68293804993687	-2
0.15176424521922124	1.6312027462866114	499.30328926819647	-2
0.18477097353460967	1.6089599201572464	507.92847883678979	-2
0.25833208783715084	1.5769430852747588	519.74692288274366	-2
0.28314890792491176	1.5761598773642573	519.56249486585125	-2
0.20469621974467328	1.6340624772179302	497.50807470125528	-2
0.24910042133119001	1.6300151302297954	498.43486421322962	-2
0.27321247356939532	1.5989141131501035	510.54023308745093	-2
0	1.6243333333333334	502.86368992248117	-2
0.061695374650851051	1.6210289540719471	504.07764129682266	-2
0	1.6554166666666668	490.29274290490235	-2
0.047992103767794364	1.649755938391023	492.50166826511617	-2
0.026163055746848428	1.6709583333333335	484.00021776414826	-2
0.083712341363396767	1.6440131320590214	494.66391544964227	-2
0.11834005441077949	1.6544934320337972	490.20299745165607	-2
0.43311082437287585	1.5392515885413749	530.22499291256236	-2
0.46550420896111616	1.5362229353824317	530.17797176799991	-2
0.48197234929836558	1.5081639892355878	540.91614857278284	-2
0.36625520852086563	1.566028952305456	521.57406280775456	-2
0.40318726161139029	1.5716224797582825	518.16178060097832	-2
0.51534764620238627	1.4901982213844085	546.69894802913404	-2
0.32268573970386139	1.5894349267170018	513.26627628241374	-2
0.29836626559642082	1.5963517338098534	511.03860106006749	-2
0.34971093391629537	1.5874868869447161	513.35852398672182	-2
0.7258494470098138	1.191883919915512	662.46983691218338	-2
0.70893487436066782	1.2564793912027687	633.69591541245347	-2
0.73105074619334298	1.2241416520325079	646.58961361390641	-2
0.70466860242756391	1.2892747200871886	619.20091169618092	-2
0.55092068799633354	1.4208511214286559	573.58553966055467	-2
0.58663391680630839	1.4027555881185554	579.0498136977576	-2
0.65470864433070586	1.3365209982051114	602.61399133340706	-2
0.66863577284820974	1.3217455431575225	607.95177809590029	-2
0.61103490983867537	1.4098246472965716	574.46823966034958	-2
0.63136454587883994	1.3895800075465667	581.58713830586657	-2
0.64517343802878802	1.3701795422474095	588.8232632707136	-2
0.66033891346789197	1.3568007565859281	593.3855146533009	-2
0.69504215854776552	1.3189192446562843	606.92605066124213	-2
0.74866666666666659	1	760.97677552621201	-2
0.74311023019484812	1.0263608171340335	746.61252557983437	-2
0.76420833333333327	1.0456142557372985	734.67187965666142	-2
0.75919375319358195	1.0913965438847995	710.23270106179496	-2