[Format]      =  4.0
[Frequency]   =  60
[Precision]   =  1e-008
[MinAngle]    =  20
[DoSmartMesh] =  1
[Depth]       =  0.028500000000000001
[LengthUnits] =  meters
[ProblemType] =  planar
[Coordinates] =  cartesian
[ACSolver]    =  0
[PrevType]    =  0
[PrevSoln]    =  ""
[Comment]     =  "Add comments here."
[PointProps]   = 1
  <BeginPoint>
    <PointName> = "Reference Point"
    <I_re> = 0
    <I_im> = 0
    <A_re> = 0
    <A_im> = 0
  <EndPoint>
[BdryProps]   = 1
  <BeginBdry>
    <BdryName> = "Dirichlet"
    <BdryType> = 0
    <A_0> = 0
    <A_1> = 0
    <A_2> = 0
    <Phi> = 0
    <c0> = 0
    <c0i> = 0
    <c1> = 0
    <c1i> = 0
    <Mu_ssd> = 0
    <Sigma_ssd> = 0
    <innerangle> = 0
    <outerangle> = 0
  <EndBdry>
[BlockProps]  = 5
  <BeginBlock>
    <BlockName> = "STEEL_CORE"
    <Mu_x> = 1
    <Mu_y> = 1
    <H_c> = 0
    <H_cAngle> = 0
    <J_re> = 0
    <J_im> = 0
    <Sigma> = 0
    <d_lam> = 0.050000000000000003
    <Phi_h> = 0
    <Phi_hx> = 0
    <Phi_hy> = 0
    <LamType> = 0
    <LamFill> = 0.80000000000000004
    <NStrands> = 0
    <WireD> = 0
    <BHPoints> = 41
      0	0
      0.040215000000000001	30.322199999999999
      0.099196000000000006	54.386899999999997
      0.155496	66.991900000000001
      0.22252	78.199799999999996
      0.31367299999999998	86.498999999999995
      0.41286899999999999	92.862899999999996
      0.49061700000000003	98.525300000000001
      0.55496000000000001	102.07599999999999
      0.63538899999999998	106.378
      0.705094	111.53100000000001
      0.77479900000000002	116.934
      0.84718499999999997	119.706
      0.91152900000000003	127.015
      0.97050999999999998	133.17699999999999
      1.0670200000000001	147.30600000000001
      1.16354	162.934
      1.2225200000000001	179.18799999999999
      1.29759	206.67699999999999
      1.3619300000000001	250.05000000000001
      1.4101900000000001	315.45499999999998
      1.4557599999999999	386.27999999999997
      1.4986600000000001	514.21299999999997
      1.5201100000000001	603.99900000000002
      1.5442400000000001	726.58199999999999
      1.5549599999999999	858.60900000000004
      1.5817699999999999	1057.79
      1.5978600000000001	1264.96
      1.62198	1521.6900000000001
      1.6407499999999999	1819.6900000000001
      1.6568400000000001	2087.0900000000001
      1.6756	2451.5500000000002
      1.6890099999999999	2811.8499999999999
      1.7158199999999999	3443.54
      1.7399500000000001	4267.8299999999999
      1.7506699999999999	4779.7200000000003
      1.7640800000000001	5289.4300000000003
      1.78552	6102.8100000000004
      1.80697	7168.3999999999996
      1.8230599999999999	8172.8900000000003
      1.8498699999999999	9949.4300000000003
  <EndBlock>
  <BeginBlock>
    <BlockName> = "Air"
    <Mu_x> = 1
    <Mu_y> = 1
    <H_c> = 0
    <H_cAngle> = 0
    <J_re> = 0
    <J_im> = 0
    <Sigma> = 0
    <d_lam> = 0
    <Phi_h> = 0
    <Phi_hx> = 0
    <Phi_hy> = 0
    <LamType> = 0
    <LamFill> = 1
    <NStrands> = 0
    <WireD> = 0
    <BHPoints> = 0
  <EndBlock>
  <BeginBlock>
    <BlockName> = "14 SWG"
    <Mu_x> = 1
    <Mu_y> = 1
    <H_c> = 0
    <H_cAngle> = 0
    <J_re> = 0
    <J_im> = 0
    <Sigma> = 58
    <d_lam> = 0
    <Phi_h> = 0
    <Phi_hx> = 0
    <Phi_hy> = 0
    <LamType> = 3
    <LamFill> = 1
    <NStrands> = 1
    <WireD> = 2.032
    <BHPoints> = 0
  <EndBlock>
  <BeginBlock>
    <BlockName> = "24 AWG"
    <Mu_x> = 1
    <Mu_y> = 1
    <H_c> = 0
    <H_cAngle> = 0
    <J_re> = 0
    <J_im> = 0
    <Sigma> = 58
    <d_lam> = 0
    <Phi_h> = 0
    <Phi_hx> = 0
    <Phi_hy> = 0
    <LamType> = 3
    <LamFill> = 1
    <NStrands> = 1
    <WireD> = 0.510714027632857
    <BHPoints> = 0
  <EndBlock>
  <BeginBlock>
    <BlockName> = "12 AWG"
    <Mu_x> = 1
    <Mu_y> = 1
    <H_c> = 0
    <H_cAngle> = 0
    <J_re> = 0
    <J_im> = 0
    <Sigma> = 58
    <d_lam> = 0
    <Phi_h> = 0
    <Phi_hx> = 0
    <Phi_hy> = 0
    <LamType> = 3
    <LamFill> = 1
    <NStrands> = 1
    <WireD> = 2.0530176819291301
    <BHPoints> = 0
  <EndBlock>
[CircuitProps]  = 2
  <BeginCircuit>
    <CircuitName> = "Primary"
    <TotalAmps_re> = 0.94999999999999996
    <TotalAmps_im> = 0
    <CircuitType> = 1
  <EndCircuit>
  <BeginCircuit>
    <CircuitName> = "Secondary"
    <TotalAmps_re> = 5
    <TotalAmps_im> = 0
    <CircuitType> = 1
  <EndCircuit>
[NumPoints] = 42
-0.028575	0	0	0
-0.028575	-0.021034375000000001	0	0
-0.0142875	-0.021034375000000001	0	0
-0.0142875	0	0	0
-0.0277875	0	0	0
-0.0277875	-0.020034375	0	0
-0.021287500000000001	-0.020034375	0	0
-0.021287500000000001	0	0	0
0.0142875	0	0	0
0.0142875	0.021034375000000001	0	0
0.028575	0.021034375000000001	0	0
0.028575	0	0	0
-0.028575	0.021034375000000001	0	0
-0.0142875	0.021034375000000001	0	0
0.042862499999999998	0	0	0
0.042862499999999998	0.035321875000000003	0	0
-0.042862499999999998	0.035321875000000003	0	0
-0.042862499999999998	0	0	0
-0.0277875	0.020034375	0	0
-0.021287500000000001	0.020034375	0	0
-0.0207875	0	0	0
-0.0207875	0.020034375	0	0
-0.015287500000000001	0.020034375	0	0
-0.015287500000000001	0	0	0
0.015287500000000001	0	0	0
0.015287500000000001	0.020034375	0	0
0.0207875	0.020034375	0	0
0.0207875	0	0	0
0.021287500000000001	0	0	0
0.021287500000000001	0.020034375	0	0
0.0277875	0.020034375	0	0
0.0277875	0	0	0
-0.0207875	-0.020034375	0	0
-0.015287500000000001	-0.020034375	0	0
0.0142875	-0.021034375000000001	0	0
0.028575	-0.021034375000000001	0	0
0.015287500000000001	-0.020034375	0	0
0.0207875	-0.020034375	0	0
0.021287500000000001	-0.020034375	0	0
0.0277875	-0.020034375	0	0
-0.042862499999999998	-0.035321875000000003	0	0
0.042862499999999998	-0.035321875000000003	0	0
[NumSegments] = 42
0	1	-1	0	0	0
1	2	-1	0	0	0
2	3	-1	0	0	0
4	5	-1	0	0	0
5	6	-1	0	0	0
6	7	-1	0	0	0
8	9	-1	0	0	0
9	10	-1	0	0	0
10	11	-1	0	0	0
0	12	-1	0	0	0
12	13	-1	0	0	0
13	3	-1	0	0	0
14	15	-1	1	0	0
15	16	-1	1	0	0
16	17	-1	1	0	0
4	18	-1	0	0	0
18	19	-1	0	0	0
19	7	-1	0	0	0
20	21	-1	0	0	0
21	22	-1	0	0	0
22	23	-1	0	0	0
24	25	-1	0	0	0
25	26	-1	0	0	0
26	27	-1	0	0	0
28	29	-1	0	0	0
29	30	-1	0	0	0
30	31	-1	0	0	0
20	32	-1	0	0	0
32	33	-1	0	0	0
33	23	-1	0	0	0
8	34	-1	0	0	0
34	35	-1	0	0	0
35	11	-1	0	0	0
24	36	-1	0	0	0
36	37	-1	0	0	0
37	27	-1	0	0	0
28	38	-1	0	0	0
38	39	-1	0	0	0
39	31	-1	0	0	0
17	40	-1	1	0	0
40	41	-1	1	0	0
41	14	-1	1	0	0
[NumArcSegments] = 0
[NumHoles] = 0
[NumBlockLabels] = 7
-0.025700000000000001	0.0132	5	-1	2	0	4	-91	0
-0.018499999999999999	-0.012	4	-1	1	0	3	-472	0
0.017299999999999999	0.0149	4	-1	1	0	3	472	0
0.024199999999999999	-0.012500000000000001	5	-1	2	0	4	91	0
-0.021100000000000001	0.0019	2	-1	0	0	0	1	0
0.021100000000000001	0.0011999999999999999	2	-1	0	0	0	1	0
-0.00040000000000000002	0.0020999999999999999	1	-1	0	0	0	1	0
