[Format]      =  1
[Precision]   =  1e-008
[MinAngle]    =  30
[DoSmartMesh] =  1
[Depth]       =  1
[LengthUnits] =  millimeters
[ProblemType] =  axisymmetric
[Coordinates] =  cartesian
[Comment]     =  "Add comments here."
[PointProps]   = 0
[BdryProps]   = 3
  <BeginBdry>
    <BdryName> = "core"
    <BdryType> = 0
    <Vs> = 0
    <qs> = 0
    <c0> = 0
    <c1> = 0
  <EndBdry>
  <BeginBdry>
    <BdryName> = "boundary1"
    <BdryType> = 0
    <Vs> = 50000
    <qs> = 0
    <c0> = 0
    <c1> = 0
  <EndBdry>
  <BeginBdry>
    <BdryName> = "boundary2"
    <BdryType> = 0
    <Vs> = 80000
    <qs> = 0
    <c0> = 0
    <c1> = 0
  <EndBdry>
[BlockProps]  = 4
  <BeginBlock>
    <BlockName> = "OilM"
    <ex> = 2.2000000000000002
    <ey> = 2.2000000000000002
    <qv> = 0
  <EndBlock>
  <BeginBlock>
    <BlockName> = "TIV"
    <ex> = 4.5
    <ey> = 4.5
    <qv> = 0
  <EndBlock>
  <BeginBlock>
    <BlockName> = "Weidmann"
    <ex> = 3.7999999999999998
    <ey> = 3.7999999999999998
    <qv> = 0
  <EndBlock>
  <BeginBlock>
    <BlockName> = "kraftsolid"
    <ex> = 3.2000000000000002
    <ey> = 3.2000000000000002
    <qv> = 0
  <EndBlock>
[ConductorProps]  = 0
[NumPoints] = 88
152.5	0	0	0	0
390	0	0	0	0
390	790	0	0	0
152.5	790	0	0	0
173	50	0	0	0
172.5	50.5	0	0	0
172.5	649.5	0	0	0
173	650	0	0	0
219.5	50.5	0	0	0
219	50	0	0	0
219	650	0	0	0
219.5	649.5	0	0	0
172.5	641	0	0	0
171.5	641	0	0	0
220.5	641	0	0	0
219.5	641	0	0	0
171.5	649.5	0	0	0
173	651	0	0	0
219	651	0	0	0
220.5	649.5	0	0	0
172.5	59	0	0	0
171.5	59	0	0	0
220.5	59	0	0	0
219.5	59	0	0	0
173	49	0	0	0
171.5	50.5	0	0	0
220.5	50.5	0	0	0
219	49	0	0	0
250	50	0	0	0
249.5	50.5	0	0	0
249.5	649.5	0	0	0
250	650	0	0	0
332.5	50.5	0	0	0
332	50	0	0	0
332	650	0	0	0
332.5	649.5	0	0	0
270.5	650	0	0	0
270.5	651	0	0	0
311.5	651	0	0	0
311.5	650	0	0	0
268.5	650	0	0	0
268.5	651	0	0	0
248.5	639	0	0	0
249.5	639	0	0	0
248.5	649.5	0	0	0
250	651	0	0	0
313.5	650	0	0	0
313.5	651	0	0	0
333.5	639	0	0	0
332.5	639	0	0	0
332	651	0	0	0
333.5	649.5	0	0	0
270.5	50	0	0	0
270.5	49	0	0	0
311.5	49	0	0	0
311.5	50	0	0	0
268.5	50	0	0	0
268.5	49	0	0	0
248.5	61	0	0	0
249.5	61	0	0	0
250	49	0	0	0
248.5	50.5	0	0	0
313.5	50	0	0	0
313.5	49	0	0	0
333.5	61	0	0	0
332.5	61	0	0	0
333.5	50.5	0	0	0
332	49	0	0	0
161.5	22.5	0	0	0
164.5	22.5	0	0	0
164.5	677.5	0	0	0
161.5	677.5	0	0	0
227.5	23	0	0	0
229.5	23	0	0	0
229.5	677	0	0	0
227.5	677	0	0	0
238.5	23	0	0	0
241.5	23	0	0	0
241.5	677	0	0	0
238.5	677	0	0	0
338.5	23	0	0	0
340.5	23	0	0	0
340.5	677	0	0	0
338.5	677	0	0	0
349.5	23	0	0	0
351.5	23	0	0	0
351.5	677	0	0	0
349.5	677	0	0	0
[NumSegments] = 80
0	1	-1	1	0	100	0
1	2	-1	1	0	100	0
2	3	-1	1	0	100	0
3	0	-1	1	0	100	0
4	9	-1	2	0	50	0
6	12	-1	2	0	50	0
8	23	-1	2	0	50	0
10	7	-1	2	0	50	0
12	20	-1	2	0	50	0
12	13	-1	0	0	0	0
13	16	-1	0	0	0	0
15	11	-1	2	0	50	0
14	15	-1	0	0	0	0
17	18	-1	0	0	0	0
19	14	-1	0	0	0	0
20	5	-1	2	0	50	0
20	21	-1	0	0	0	0
21	25	-1	0	0	0	0
23	15	-1	2	0	50	0
22	23	-1	0	0	0	0
24	27	-1	0	0	0	0
26	22	-1	0	0	0	0
28	56	-1	3	0	50	0
30	43	-1	3	0	50	0
32	65	-1	3	0	50	0
34	46	-1	3	0	50	0
36	40	-1	3	0	50	0
36	37	-1	0	0	0	0
37	38	-1	0	0	0	0
39	36	-1	3	0	50	0
38	39	-1	0	0	0	0
40	31	-1	3	0	50	0
40	41	-1	0	0	0	0
41	45	-1	0	0	0	0
43	59	-1	3	0	50	0
42	43	-1	0	0	0	0
44	42	-1	0	0	0	0
46	39	-1	3	0	50	0
46	47	-1	0	0	0	0
47	50	-1	0	0	0	0
49	35	-1	3	0	50	0
48	49	-1	0	0	0	0
51	48	-1	0	0	0	0
52	55	-1	3	0	50	0
52	53	-1	0	0	0	0
53	54	-1	0	0	0	0
55	62	-1	3	0	50	0
54	55	-1	0	0	0	0
56	52	-1	3	0	50	0
56	57	-1	0	0	0	0
57	60	-1	0	0	0	0
59	29	-1	3	0	50	0
58	59	-1	0	0	0	0
61	58	-1	0	0	0	0
62	33	-1	3	0	50	0
62	63	-1	0	0	0	0
63	67	-1	0	0	0	0
65	49	-1	3	0	50	0
64	65	-1	0	0	0	0
66	64	-1	0	0	0	0
68	69	-1	0	0	0	0
69	70	-1	0	0	0	0
70	71	-1	0	0	0	0
71	68	-1	0	0	0	0
72	73	-1	0	0	0	0
73	74	-1	0	0	0	0
74	75	-1	0	0	0	0
75	72	-1	0	0	0	0
76	77	-1	0	0	0	0
77	78	-1	0	0	0	0
78	79	-1	0	0	0	0
79	76	-1	0	0	0	0
80	81	-1	0	0	0	0
81	82	-1	0	0	0	0
82	83	-1	0	0	0	0
83	80	-1	0	0	0	0
84	85	-1	0	0	0	0
85	86	-1	0	0	0	0
86	87	-1	0	0	0	0
87	84	-1	0	0	0	0
[NumArcSegments] = 16
5	4	90	10	2	0	50	0	10
7	6	90	10	2	0	50	0	10
9	8	90	10	2	0	50	0	10
11	10	90	10	2	0	50	0	10
17	16	90	10	0	0	0	0	10
19	18	90	10	0	0	0	0	10
25	24	90	10	0	0	0	0	10
27	26	90	10	0	0	0	0	10
29	28	90	10	3	0	50	0	10
31	30	90	10	3	0	50	0	10
33	32	90	10	3	0	50	0	10
35	34	90	10	3	0	50	0	10
45	44	90	10	0	0	0	0	10
51	50	90	10	0	0	0	0	10
61	60	90	10	0	0	0	0	10
67	66	90	10	0	0	0	0	10
[NumHoles] = 2
196	395	500
291	395	500
[NumBlockLabels] = 14
195	770	1	10	0	0
196	650.5	3	1	3	0
196	49.5	3	1	3	0
291	650.5	3	1	3	0
291	49.5	3	1	3	0
249	56	3	1	3	0
333	56	3	1	3	0
249	644	3	1	3	0
333	644	3	1	3	0
163	282.5	2	2	3	0
228.5	282	2	2	3	0
240	282	2	2	3	0
339.5	282	2	2	3	0
350.5	282	2	2	3	0
