[Format]      =  1
[Precision]   =  1e-008
[MinAngle]    =  30
[DoSmartMesh] =  1
[Depth]       =  1
[LengthUnits] =  millimeters
[ProblemType] =  axisymmetric
[Coordinates] =  cartesian
[Comment]     =  "Add comments here."
[PointProps]   = 0
[BdryProps]   = 5
  <BeginBdry>
    <BdryName> = "core"
    <BdryType> = 0
    <Vs> = 0
    <qs> = 0
    <c0> = 0
    <c1> = 0
  <EndBdry>
  <BeginBdry>
    <BdryName> = "BoundTer"
    <BdryType> = 0
    <Vs> = 80000
    <qs> = 0
    <c0> = 0
    <c1> = 0
  <EndBdry>
  <BeginBdry>
    <BdryName> = "BoundLV"
    <BdryType> = 0
    <Vs> = 0
    <qs> = 0
    <c0> = 0
    <c1> = 0
  <EndBdry>
  <BeginBdry>
    <BdryName> = "BoundREGAT"
    <BdryType> = 0
    <Vs> = 0
    <qs> = 0
    <c0> = 0
    <c1> = 0
  <EndBdry>
  <BeginBdry>
    <BdryName> = "BoundAT"
    <BdryType> = 0
    <Vs> = 0
    <qs> = 0
    <c0> = 0
    <c1> = 0
  <EndBdry>
[BlockProps]  = 5
  <BeginBlock>
    <BlockName> = "OilM"
    <ex> = 2.2000000000000002
    <ey> = 2.2000000000000002
    <qv> = 0
  <EndBlock>
  <BeginBlock>
    <BlockName> = "TIV"
    <ex> = 4.5
    <ey> = 4.5
    <qv> = 0
  <EndBlock>
  <BeginBlock>
    <BlockName> = "Weidmann"
    <ex> = 3.7999999999999998
    <ey> = 3.7999999999999998
    <qv> = 0
  <EndBlock>
  <BeginBlock>
    <BlockName> = "kraftsolid"
    <ex> = 3.2000000000000002
    <ey> = 3.2000000000000002
    <qv> = 0
  <EndBlock>
  <BeginBlock>
    <BlockName> = "Kraftloose"
    <ex> = 2.8999999999999999
    <ey> = 2.8999999999999999
    <qv> = 0
  <EndBlock>
[ConductorProps]  = 0
[NumPoints] = 252
320	0	0	0	0
1635	0	0	0	0
1635	2140	0	0	0
320	2140	0	0	0
341.5	140	0	0	0
341	140.5	0	0	0
341	1899.5	0	0	0
341.5	1900	0	0	0
372	140.5	0	0	0
371.5	140	0	0	0
371.5	1900	0	0	0
372	1899.5	0	0	0
341	1889	0	0	0
340	1889	0	0	0
373	1889	0	0	0
372	1889	0	0	0
340	1899.5	0	0	0
341.5	1901	0	0	0
371.5	1901	0	0	0
373	1899.5	0	0	0
341	151	0	0	0
340	151	0	0	0
373	151	0	0	0
372	151	0	0	0
341.5	139	0	0	0
340	140.5	0	0	0
373	140.5	0	0	0
371.5	139	0	0	0
488.03500000000003	135	0	0	0
487	136.035	0	0	0
488.03500000000003	135.535	0	0	0
487.53500000000003	136.035	0	0	0
487	1903.9649999999999	0	0	0
488.03500000000003	1905	0	0	0
487.53500000000003	1903.9649999999999	0	0	0
488.03500000000003	1904.4649999999999	0	0	0
545	136.035	0	0	0
543.96500000000003	135	0	0	0
544.46500000000003	136.035	0	0	0
543.96500000000003	135.535	0	0	0
543.96500000000003	1905	0	0	0
545	1903.9649999999999	0	0	0
543.96500000000003	1904.4649999999999	0	0	0
544.46500000000003	1903.9649999999999	0	0	0
508	1905	0	0	0
508	1906	0	0	0
524	1906	0	0	0
524	1905	0	0	0
506	1905	0	0	0
506	1906	0	0	0
486	1891	0	0	0
487	1891	0	0	0
486	1903.9649999999999	0	0	0
488.03500000000003	1906	0	0	0
526	1905	0	0	0
526	1906	0	0	0
546	1891	0	0	0
545	1891	0	0	0
543.96500000000003	1906	0	0	0
546	1903.9649999999999	0	0	0
508	135	0	0	0
508	134	0	0	0
524	134	0	0	0
524	135	0	0	0
506	135	0	0	0
506	134	0	0	0
486	149	0	0	0
487	149	0	0	0
488.03500000000003	134	0	0	0
486	136.035	0	0	0
526	135	0	0	0
526	134	0	0	0
546	149	0	0	0
545	149	0	0	0
546	136.035	0	0	0
543.96500000000003	134	0	0	0
596.11000000000001	135	0	0	0
595	136.11000000000001	0	0	0
596.11000000000001	135.61000000000001	0	0	0
595.61000000000001	136.11000000000001	0	0	0
595	1903.8900000000001	0	0	0
596.11000000000001	1905	0	0	0
595.61000000000001	1903.8900000000001	0	0	0
596.11000000000001	1904.3900000000001	0	0	0
618	136.11000000000001	0	0	0
616.88999999999999	135	0	0	0
617.38999999999999	136.11000000000001	0	0	0
616.88999999999999	135.61000000000001	0	0	0
616.88999999999999	1905	0	0	0
618	1903.8900000000001	0	0	0
616.88999999999999	1904.3900000000001	0	0	0
617.38999999999999	1903.8900000000001	0	0	0
595	1895	0	0	0
594	1895	0	0	0
619	1895	0	0	0
618	1895	0	0	0
594	1903.8900000000001	0	0	0
596.11000000000001	1906	0	0	0
616.88999999999999	1906	0	0	0
619	1903.8900000000001	0	0	0
595	145	0	0	0
594	145	0	0	0
619	145	0	0	0
618	145	0	0	0
596.11000000000001	134	0	0	0
594	136.11000000000001	0	0	0
619	136.11000000000001	0	0	0
616.88999999999999	134	0	0	0
689.64499999999998	145	0	0	0
688	146.64500000000001	0	0	0
689.64499999999998	146.14500000000001	0	0	0
689.14499999999998	146.64500000000001	0	0	0
688	1893.355	0	0	0
689.64499999999998	1895	0	0	0
689.14499999999998	1893.355	0	0	0
689.64499999999998	1893.855	0	0	0
775	146.64500000000001	0	0	0
773.35500000000002	145	0	0	0
773.85500000000002	146.64500000000001	0	0	0
773.35500000000002	146.14500000000001	0	0	0
773.35500000000002	1895	0	0	0
775	1893.355	0	0	0
773.35500000000002	1893.855	0	0	0
773.85500000000002	1893.355	0	0	0
709	1895	0	0	0
709	1896	0	0	0
754	1896	0	0	0
754	1895	0	0	0
707	1895	0	0	0
707	1896	0	0	0
687	1886	0	0	0
688	1886	0	0	0
687	1893.355	0	0	0
689.64499999999998	1896	0	0	0
756	1895	0	0	0
756	1896	0	0	0
776	1886	0	0	0
775	1886	0	0	0
773.35500000000002	1896	0	0	0
776	1893.355	0	0	0
709	145	0	0	0
709	144	0	0	0
754	144	0	0	0
754	145	0	0	0
707	145	0	0	0
707	144	0	0	0
687	154	0	0	0
688	154	0	0	0
689.64499999999998	144	0	0	0
687	146.64500000000001	0	0	0
756	145	0	0	0
756	144	0	0	0
776	154	0	0	0
775	154	0	0	0
776	146.64500000000001	0	0	0
773.35500000000002	144	0	0	0
332	25	0	0	0
335	25	0	0	0
335	1973	0	0	0
332	1973	0	0	0
378	46	0	0	0
380	46	0	0	0
380	1973	0	0	0
378	1973	0	0	0
388	46	0	0	0
389	46	0	0	0
389	1973	0	0	0
388	1973	0	0	0
397	46	0	0	0
398	46	0	0	0
398	1973	0	0	0
397	1973	0	0	0
406	46	0	0	0
407	46	0	0	0
407	1973	0	0	0
406	1973	0	0	0
415	46	0	0	0
416	46	0	0	0
416	1973	0	0	0
415	1973	0	0	0
426	46	0	0	0
427	46	0	0	0
427	1973	0	0	0
426	1973	0	0	0
437	46	0	0	0
438	46	0	0	0
438	1973	0	0	0
437	1973	0	0	0
448	46	0	0	0
449	46	0	0	0
449	1973	0	0	0
448	1973	0	0	0
457	46	0	0	0
458	46	0	0	0
458	1973	0	0	0
457	1973	0	0	0
466	46	0	0	0
467	46	0	0	0
467	1973	0	0	0
466	1973	0	0	0
476	46	0	0	0
479	46	0	0	0
479	1973	0	0	0
476	1973	0	0	0
551	46	0	0	0
553	46	0	0	0
553	1973	0	0	0
551	1973	0	0	0
561	46	0	0	0
562	46	0	0	0
562	1973	0	0	0
561	1973	0	0	0
572	46	0	0	0
573	46	0	0	0
573	1973	0	0	0
572	1973	0	0	0
583	46	0	0	0
587	46	0	0	0
587	1973	0	0	0
583	1973	0	0	0
624	46	0	0	0
626	46	0	0	0
626	1973	0	0	0
624	1973	0	0	0
634	46	0	0	0
635	46	0	0	0
635	1973	0	0	0
634	1973	0	0	0
644	46	0	0	0
645	46	0	0	0
645	1973	0	0	0
644	1973	0	0	0
655	46	0	0	0
656	46	0	0	0
656	1973	0	0	0
655	1973	0	0	0
666	46	0	0	0
667	46	0	0	0
667	1973	0	0	0
666	1973	0	0	0
677	51	0	0	0
680	51	0	0	0
680	1963	0	0	0
677	1963	0	0	0
341	2012	0	0	0
775	2012	0	0	0
775	2015	0	0	0
341	2015	0	0	0
341	25	0	0	0
775	25	0	0	0
775	28	0	0	0
341	28	0	0	0
[NumSegments] = 224
0	1	-1	1	0	100	0
1	2	-1	0	0	0	0
2	3	-1	1	0	100	0
3	0	-1	1	0	100	0
4	9	-1	2	0	50	0
6	12	-1	2	0	50	0
8	23	-1	2	0	50	0
10	7	-1	2	0	50	0
12	20	-1	2	0	50	0
12	13	-1	0	0	0	0
13	16	-1	0	0	0	0
15	11	-1	2	0	50	0
14	15	-1	0	0	0	0
17	18	-1	0	0	0	0
19	14	-1	0	0	0	0
20	5	-1	2	0	50	0
20	21	-1	0	0	0	0
21	25	-1	0	0	0	0
23	15	-1	2	0	50	0
22	23	-1	0	0	0	0
24	27	-1	0	0	0	0
26	22	-1	0	0	0	0
28	64	-1	0	0	0	0
30	39	-1	3	0	50	0
32	51	-1	0	0	0	0
34	31	-1	3	0	50	0
36	73	-1	0	0	0	0
38	43	-1	3	0	50	0
40	54	-1	0	0	0	0
42	35	-1	3	0	50	0
44	48	-1	0	0	0	0
44	45	-1	0	0	0	0
45	46	-1	0	0	0	0
47	44	-1	0	0	0	0
46	47	-1	0	0	0	0
48	33	-1	0	0	0	0
48	49	-1	0	0	0	0
49	53	-1	0	0	0	0
51	67	-1	0	0	0	0
50	51	-1	0	0	0	0
52	50	-1	0	0	0	0
54	47	-1	0	0	0	0
54	55	-1	0	0	0	0
55	58	-1	0	0	0	0
57	41	-1	0	0	0	0
56	57	-1	0	0	0	0
59	56	-1	0	0	0	0
60	63	-1	0	0	0	0
60	61	-1	0	0	0	0
61	62	-1	0	0	0	0
63	70	-1	0	0	0	0
62	63	-1	0	0	0	0
64	60	-1	0	0	0	0
64	65	-1	0	0	0	0
65	68	-1	0	0	0	0
67	29	-1	0	0	0	0
66	67	-1	0	0	0	0
69	66	-1	0	0	0	0
70	37	-1	0	0	0	0
70	71	-1	0	0	0	0
71	75	-1	0	0	0	0
73	57	-1	0	0	0	0
72	73	-1	0	0	0	0
74	72	-1	0	0	0	0
76	85	-1	0	0	0	0
78	87	-1	4	0	50	0
80	92	-1	0	0	0	0
82	79	-1	4	0	50	0
84	103	-1	0	0	0	0
86	91	-1	4	0	50	0
88	81	-1	0	0	0	0
90	83	-1	4	0	50	0
92	100	-1	0	0	0	0
92	93	-1	0	0	0	0
93	96	-1	0	0	0	0
95	89	-1	0	0	0	0
94	95	-1	0	0	0	0
97	98	-1	0	0	0	0
99	94	-1	0	0	0	0
100	77	-1	0	0	0	0
100	101	-1	0	0	0	0
101	105	-1	0	0	0	0
103	95	-1	0	0	0	0
102	103	-1	0	0	0	0
104	107	-1	0	0	0	0
106	102	-1	0	0	0	0
108	144	-1	0	0	0	0
110	119	-1	5	0	50	0
112	131	-1	0	0	0	0
114	111	-1	5	0	50	0
116	153	-1	0	0	0	0
118	123	-1	5	0	50	0
120	134	-1	0	0	0	0
122	115	-1	5	0	50	0
124	128	-1	0	0	0	0
124	125	-1	0	0	0	0
125	126	-1	0	0	0	0
127	124	-1	0	0	0	0
126	127	-1	0	0	0	0
128	113	-1	0	0	0	0
128	129	-1	0	0	0	0
129	133	-1	0	0	0	0
131	147	-1	0	0	0	0
130	131	-1	0	0	0	0
132	130	-1	0	0	0	0
134	127	-1	0	0	0	0
134	135	-1	0	0	0	0
135	138	-1	0	0	0	0
137	121	-1	0	0	0	0
136	137	-1	0	0	0	0
139	136	-1	0	0	0	0
140	143	-1	0	0	0	0
140	141	-1	0	0	0	0
141	142	-1	0	0	0	0
143	150	-1	0	0	0	0
142	143	-1	0	0	0	0
144	140	-1	0	0	0	0
144	145	-1	0	0	0	0
145	148	-1	0	0	0	0
147	109	-1	0	0	0	0
146	147	-1	0	0	0	0
149	146	-1	0	0	0	0
150	117	-1	0	0	0	0
150	151	-1	0	0	0	0
151	155	-1	0	0	0	0
153	137	-1	0	0	0	0
152	153	-1	0	0	0	0
154	152	-1	0	0	0	0
156	157	-1	0	0	0	0
157	158	-1	0	0	0	0
158	159	-1	0	0	0	0
159	156	-1	0	0	0	0
160	161	-1	0	0	0	0
161	162	-1	0	0	0	0
162	163	-1	0	0	0	0
163	160	-1	0	0	0	0
164	165	-1	0	0	0	0
165	166	-1	0	0	0	0
166	167	-1	0	0	0	0
167	164	-1	0	0	0	0
168	169	-1	0	0	0	0
169	170	-1	0	0	0	0
170	171	-1	0	0	0	0
171	168	-1	0	0	0	0
172	173	-1	0	0	0	0
173	174	-1	0	0	0	0
174	175	-1	0	0	0	0
175	172	-1	0	0	0	0
176	177	-1	0	0	0	0
177	178	-1	0	0	0	0
178	179	-1	0	0	0	0
179	176	-1	0	0	0	0
180	181	-1	0	0	0	0
181	182	-1	0	0	0	0
182	183	-1	0	0	0	0
183	180	-1	0	0	0	0
184	185	-1	0	0	0	0
185	186	-1	0	0	0	0
186	187	-1	0	0	0	0
187	184	-1	0	0	0	0
188	189	-1	0	0	0	0
189	190	-1	0	0	0	0
190	191	-1	0	0	0	0
191	188	-1	0	0	0	0
192	193	-1	0	0	0	0
193	194	-1	0	0	0	0
194	195	-1	0	0	0	0
195	192	-1	0	0	0	0
196	197	-1	0	0	0	0
197	198	-1	0	0	0	0
198	199	-1	0	0	0	0
199	196	-1	0	0	0	0
200	201	-1	0	0	0	0
201	202	-1	0	0	0	0
202	203	-1	0	0	0	0
203	200	-1	0	0	0	0
204	205	-1	0	0	0	0
205	206	-1	0	0	0	0
206	207	-1	0	0	0	0
207	204	-1	0	0	0	0
208	209	-1	0	0	0	0
209	210	-1	0	0	0	0
210	211	-1	0	0	0	0
211	208	-1	0	0	0	0
212	213	-1	0	0	0	0
213	214	-1	0	0	0	0
214	215	-1	0	0	0	0
215	212	-1	0	0	0	0
216	217	-1	0	0	0	0
217	218	-1	0	0	0	0
218	219	-1	0	0	0	0
219	216	-1	0	0	0	0
220	221	-1	0	0	0	0
221	222	-1	0	0	0	0
222	223	-1	0	0	0	0
223	220	-1	0	0	0	0
224	225	-1	0	0	0	0
225	226	-1	0	0	0	0
226	227	-1	0	0	0	0
227	224	-1	0	0	0	0
228	229	-1	0	0	0	0
229	230	-1	0	0	0	0
230	231	-1	0	0	0	0
231	228	-1	0	0	0	0
232	233	-1	0	0	0	0
233	234	-1	0	0	0	0
234	235	-1	0	0	0	0
235	232	-1	0	0	0	0
236	237	-1	0	0	0	0
237	238	-1	0	0	0	0
238	239	-1	0	0	0	0
239	236	-1	0	0	0	0
240	241	-1	0	0	0	0
241	242	-1	0	0	0	0
242	243	-1	0	0	0	0
243	240	-1	0	0	0	0
244	245	-1	0	0	0	0
245	246	-1	0	0	0	0
246	247	-1	0	0	0	0
247	244	-1	0	0	0	0
248	249	-1	0	0	0	0
249	250	-1	0	0	0	0
250	251	-1	0	0	0	0
251	248	-1	0	0	0	0
[NumArcSegments] = 44
5	4	90	10	2	0	50	0	1
7	6	90	10	2	0	50	0	1
9	8	90	10	2	0	50	0	1
11	10	90	10	2	0	50	0	1
17	16	90	10	0	0	0	0	1
19	18	90	10	0	0	0	0	1
25	24	90	10	0	0	0	0	1
27	26	90	10	0	0	0	0	1
29	28	90	10	0	0	0	0	1
31	30	90	10	3	0	50	0	1
33	32	90	10	0	0	0	0	1
35	34	90	10	3	0	50	0	1
37	36	90	10	0	0	0	0	1
39	38	90	10	3	0	50	0	1
41	40	90	10	0	0	0	0	1
43	42	90	10	3	0	50	0	1
53	52	90	10	0	0	0	0	1
59	58	90	10	0	0	0	0	1
69	68	90	10	0	0	0	0	1
75	74	90	10	0	0	0	0	1
77	76	90	10	0	0	0	0	1
79	78	90	10	4	0	50	0	1
81	80	90	10	0	0	0	0	1
83	82	90	10	4	0	50	0	1
85	84	90	10	0	0	0	0	1
87	86	90	10	4	0	50	0	1
89	88	90	10	0	0	0	0	1
91	90	90	10	4	0	50	0	1
97	96	90	10	0	0	0	0	1
99	98	90	10	0	0	0	0	1
105	104	90	10	0	0	0	0	1
107	106	90	10	0	0	0	0	1
109	108	90	10	0	0	0	0	1
111	110	90	10	5	0	50	0	1
113	112	90	10	0	0	0	0	1
115	114	90	10	5	0	50	0	1
117	116	90	10	0	0	0	0	1
119	118	90	10	5	0	50	0	1
121	120	90	10	0	0	0	0	1
123	122	90	10	5	0	50	0	1
133	132	90	10	0	0	0	0	1
139	138	90	10	0	0	0	0	1
149	148	90	10	0	0	0	0	1
155	154	90	10	0	0	0	0	1
[NumHoles] = 4
356.5	1070	500
516	1070	500
606.5	1070	500
731.5	1070	500
[NumBlockLabels] = 42
456.25	2120	1	10	0	0
356.5	1900.5	3	1	3	0
356.5	139.5	3	1	3	0
516	1905.5	3	1	3	0
516	134.5	3	1	3	0
486.5	142.5	3	1	3	0
545.5	142.5	3	1	3	0
486.5	1897.5	3	1	3	0
545.5	1897.5	3	1	3	0
516	1904.7325000000001	4	0.53500000000000003	2	0
606.5	1905.5	3	1	3	0
606.5	134.5	3	1	3	0
606.5	1904.6949999999999	4	0.60999999999999999	2	0
731.5	1895.5	3	1	3	0
731.5	144.5	3	1	3	0
687.5	150	3	1	3	0
775.5	150	3	1	3	0
687.5	1890	3	1	3	0
775.5	1890	3	1	3	0
731.5	1894.4275	4	1.145	2	0
333.5	835	2	2	3	0
379	835	2	2	3	0
388.5	835	2	2	3	0
397.5	835	2	2	3	0
406.5	835	2	2	3	0
415.5	835	2	2	3	0
426.5	835	2	2	3	0
437.5	835	2	2	3	0
448.5	835	2	2	3	0
457.5	835	2	2	3	0
466.5	835	2	2	3	0
477.5	835	2	2	3	0
552	835	2	2	3	0
561.5	835	2	2	3	0
572.5	835	2	2	3	0
585	835	2	2	3	0
625	835	2	2	3	0
634.5	835	2	2	3	0
644.5	835	2	2	3	0
655.5	835	2	2	3	0
666.5	835	2	2	3	0
678.5	835	2	2	3	0
