[Format]      =  1
[Precision]   =  1e-008
[MinAngle]    =  30
[DoSmartMesh] =  1
[Depth]       =  1
[LengthUnits] =  millimeters
[ProblemType] =  axisymmetric
[Coordinates] =  cartesian
[Comment]     =  "Add comments here."
[PointProps]   = 0
[BdryProps]   = 4
  <BeginBdry>
    <BdryName> = "core"
    <BdryType> = 0
    <Vs> = 0
    <qs> = 0
    <c0> = 0
    <c1> = 0
  <EndBdry>
  <BeginBdry>
    <BdryName> = "BoundTer"
    <BdryType> = 0
    <Vs> = 180000
    <qs> = 0
    <c0> = 0
    <c1> = 0
  <EndBdry>
  <BeginBdry>
    <BdryName> = "BoundLV"
    <BdryType> = 0
    <Vs> = 0
    <qs> = 0
    <c0> = 0
    <c1> = 0
  <EndBdry>
  <BeginBdry>
    <BdryName> = "BoundHV"
    <BdryType> = 0
    <Vs> = 0
    <qs> = 0
    <c0> = 0
    <c1> = 0
  <EndBdry>
[BlockProps]  = 4
  <BeginBlock>
    <BlockName> = "OilM"
    <ex> = 2.2000000000000002
    <ey> = 2.2000000000000002
    <qv> = 0
  <EndBlock>
  <BeginBlock>
    <BlockName> = "TIV"
    <ex> = 4.5
    <ey> = 4.5
    <qv> = 0
  <EndBlock>
  <BeginBlock>
    <BlockName> = "Weidmann"
    <ex> = 3.7999999999999998
    <ey> = 3.7999999999999998
    <qv> = 0
  <EndBlock>
  <BeginBlock>
    <BlockName> = "kraftsolid"
    <ex> = 3.2000000000000002
    <ey> = 3.2000000000000002
    <qv> = 0
  <EndBlock>
[ConductorProps]  = 0
[NumPoints] = 232
450	0	0	0	0
950	0	0	0	0
950	2540	0	0	0
450	2540	0	0	0
474.5	215	0	0	0
474	215.5	0	0	0
474	2214.5	0	0	0
474.5	2215	0	0	0
487	215.5	0	0	0
486.5	215	0	0	0
486.5	2215	0	0	0
487	2214.5	0	0	0
474	2201	0	0	0
473	2201	0	0	0
488	2201	0	0	0
487	2201	0	0	0
473	2214.5	0	0	0
474.5	2216	0	0	0
486.5	2216	0	0	0
488	2214.5	0	0	0
474	229	0	0	0
473	229	0	0	0
488	229	0	0	0
487	229	0	0	0
474.5	214	0	0	0
473	215.5	0	0	0
488	215.5	0	0	0
486.5	214	0	0	0
509.5	90	0	0	0
509	90.5	0	0	0
509	2339.5	0	0	0
509.5	2340	0	0	0
561	90.5	0	0	0
560.5	90	0	0	0
560.5	2340	0	0	0
561	2339.5	0	0	0
509	2330	0	0	0
508	2330	0	0	0
562	2330	0	0	0
561	2330	0	0	0
508	2339.5	0	0	0
509.5	2341	0	0	0
560.5	2341	0	0	0
562	2339.5	0	0	0
509	100	0	0	0
508	100	0	0	0
562	100	0	0	0
561	100	0	0	0
509.5	89	0	0	0
508	90.5	0	0	0
562	90.5	0	0	0
560.5	89	0	0	0
669.18499999999995	110	0	0	0
668	111.185	0	0	0
669.18499999999995	110.685	0	0	0
668.68499999999995	111.185	0	0	0
668	2318.8150000000001	0	0	0
669.18499999999995	2320	0	0	0
668.68499999999995	2318.8150000000001	0	0	0
669.18499999999995	2319.3150000000001	0	0	0
780	111.185	0	0	0
778.81500000000005	110	0	0	0
779.31500000000005	111.185	0	0	0
778.81500000000005	110.685	0	0	0
778.81500000000005	2320	0	0	0
780	2318.8150000000001	0	0	0
778.81500000000005	2319.3150000000001	0	0	0
779.31500000000005	2318.8150000000001	0	0	0
689	2320	0	0	0
689	2321	0	0	0
759	2321	0	0	0
759	2320	0	0	0
687	2320	0	0	0
687	2321	0	0	0
667	2309	0	0	0
668	2309	0	0	0
667	2318.8150000000001	0	0	0
669.18499999999995	2321	0	0	0
761	2320	0	0	0
761	2321	0	0	0
781	2309	0	0	0
780	2309	0	0	0
778.81500000000005	2321	0	0	0
781	2318.8150000000001	0	0	0
689	110	0	0	0
689	109	0	0	0
759	109	0	0	0
759	110	0	0	0
687	110	0	0	0
687	109	0	0	0
667	121	0	0	0
668	121	0	0	0
669.18499999999995	109	0	0	0
667	111.185	0	0	0
761	110	0	0	0
761	109	0	0	0
781	121	0	0	0
780	121	0	0	0
781	111.185	0	0	0
778.81500000000005	109	0	0	0
853.11000000000001	1615	0	0	0
852	1616.1099999999999	0	0	0
853.11000000000001	1615.6099999999999	0	0	0
852.61000000000001	1616.1099999999999	0	0	0
893	1616.1099999999999	0	0	0
891.88999999999999	1615	0	0	0
892.38999999999999	1616.1099999999999	0	0	0
891.88999999999999	1615.6099999999999	0	0	0
852	1903.8900000000001	0	0	0
853.11000000000001	1905	0	0	0
852.61000000000001	1903.8900000000001	0	0	0
853.11000000000001	1904.3900000000001	0	0	0
891.88999999999999	1905	0	0	0
893	1903.8900000000001	0	0	0
891.88999999999999	1904.3900000000001	0	0	0
892.38999999999999	1903.8900000000001	0	0	0
853.11000000000001	525.61000000000001	0	0	0
852.61000000000001	526.11000000000001	0	0	0
853.11000000000001	525	0	0	0
852	526.11000000000001	0	0	0
893	526.11000000000001	0	0	0
891.88999999999999	525	0	0	0
892.38999999999999	526.11000000000001	0	0	0
891.88999999999999	525.61000000000001	0	0	0
852	813.88999999999999	0	0	0
853.11000000000001	815	0	0	0
852.61000000000001	813.88999999999999	0	0	0
853.11000000000001	814.38999999999999	0	0	0
891.88999999999999	815	0	0	0
893	813.88999999999999	0	0	0
891.88999999999999	814.38999999999999	0	0	0
892.38999999999999	813.88999999999999	0	0	0
852	1894	0	0	0
851	1894	0	0	0
894	1894	0	0	0
893	1894	0	0	0
851	1904.5	0	0	0
852.5	1906	0	0	0
892.5	1906	0	0	0
894	1904.5	0	0	0
852	1628	0	0	0
851	1628	0	0	0
894	1628	0	0	0
893	1628	0	0	0
852.5	1614	0	0	0
851	1615.5	0	0	0
894	1615.5	0	0	0
892.5	1614	0	0	0
852	536	0	0	0
851	536	0	0	0
894	536	0	0	0
893	536	0	0	0
852.5	524	0	0	0
851	525.5	0	0	0
894	525.5	0	0	0
892.5	524	0	0	0
852	802	0	0	0
851	802	0	0	0
894	802	0	0	0
893	802	0	0	0
851	814.5	0	0	0
852.5	816	0	0	0
892.5	816	0	0	0
894	814.5	0	0	0
458	90	0	0	0
459	90	0	0	0
459	2340	0	0	0
458	2340	0	0	0
498	90	0	0	0
501	90	0	0	0
501	2340	0	0	0
498	2340	0	0	0
567	90	0	0	0
569	90	0	0	0
569	2340	0	0	0
567	2340	0	0	0
579	90	0	0	0
580	90	0	0	0
580	2340	0	0	0
579	2340	0	0	0
590	90	0	0	0
591	90	0	0	0
591	2340	0	0	0
590	2340	0	0	0
601	90	0	0	0
602	90	0	0	0
602	2340	0	0	0
601	2340	0	0	0
613	90	0	0	0
614	90	0	0	0
614	2340	0	0	0
613	2340	0	0	0
624	90	0	0	0
625	90	0	0	0
625	2340	0	0	0
624	2340	0	0	0
635	90	0	0	0
636	90	0	0	0
636	2340	0	0	0
635	2340	0	0	0
646	90	0	0	0
647	90	0	0	0
647	2340	0	0	0
646	2340	0	0	0
657	90	0	0	0
660	90	0	0	0
660	2340	0	0	0
657	2340	0	0	0
786	90	0	0	0
788	90	0	0	0
788	2340	0	0	0
786	2340	0	0	0
796	90	0	0	0
798	90	0	0	0
798	2340	0	0	0
796	2340	0	0	0
808	90	0	0	0
810	90	0	0	0
810	2340	0	0	0
808	2340	0	0	0
818	90	0	0	0
820	90	0	0	0
820	2340	0	0	0
818	2340	0	0	0
830	90	0	0	0
832	90	0	0	0
832	2340	0	0	0
830	2340	0	0	0
840	90	0	0	0
844	90	0	0	0
844	2340	0	0	0
840	2340	0	0	0
[NumSegments] = 194
0	1	-1	1	0	100	0
1	2	-1	1	0	100	0
2	3	-1	1	0	100	0
3	0	-1	1	0	100	0
4	9	-1	2	0	50	0
6	12	-1	2	0	50	0
8	23	-1	2	0	50	0
10	7	-1	2	0	50	0
12	20	-1	2	0	50	0
12	13	-1	0	0	0	0
13	16	-1	0	0	0	0
15	11	-1	2	0	50	0
14	15	-1	0	0	0	0
17	18	-1	0	0	0	0
19	14	-1	0	0	0	0
20	5	-1	2	0	50	0
20	21	-1	0	0	0	0
21	25	-1	0	0	0	0
23	15	-1	2	0	50	0
22	23	-1	0	0	0	0
24	27	-1	0	0	0	0
26	22	-1	0	0	0	0
28	33	-1	3	0	50	0
30	36	-1	3	0	50	0
32	47	-1	3	0	50	0
34	31	-1	3	0	50	0
36	44	-1	3	0	50	0
36	37	-1	0	0	0	0
37	40	-1	0	0	0	0
39	35	-1	3	0	50	0
38	39	-1	0	0	0	0
41	42	-1	0	0	0	0
43	38	-1	0	0	0	0
44	29	-1	3	0	50	0
44	45	-1	0	0	0	0
45	49	-1	0	0	0	0
47	39	-1	3	0	50	0
46	47	-1	0	0	0	0
48	51	-1	0	0	0	0
50	46	-1	0	0	0	0
52	88	-1	0	0	0	0
54	63	-1	4	0	50	0
56	75	-1	0	0	0	0
58	55	-1	4	0	50	0
60	97	-1	0	0	0	0
62	67	-1	4	0	50	0
64	78	-1	0	0	0	0
66	59	-1	4	0	50	0
68	72	-1	0	0	0	0
68	69	-1	0	0	0	0
69	70	-1	0	0	0	0
71	68	-1	0	0	0	0
70	71	-1	0	0	0	0
72	57	-1	0	0	0	0
72	73	-1	0	0	0	0
73	77	-1	0	0	0	0
75	91	-1	0	0	0	0
74	75	-1	0	0	0	0
76	74	-1	0	0	0	0
78	71	-1	0	0	0	0
78	79	-1	0	0	0	0
79	82	-1	0	0	0	0
81	65	-1	0	0	0	0
80	81	-1	0	0	0	0
83	80	-1	0	0	0	0
84	87	-1	0	0	0	0
84	85	-1	0	0	0	0
85	86	-1	0	0	0	0
87	94	-1	0	0	0	0
86	87	-1	0	0	0	0
88	84	-1	0	0	0	0
88	89	-1	0	0	0	0
89	92	-1	0	0	0	0
91	53	-1	0	0	0	0
90	91	-1	0	0	0	0
93	90	-1	0	0	0	0
94	61	-1	0	0	0	0
94	95	-1	0	0	0	0
95	99	-1	0	0	0	0
97	81	-1	0	0	0	0
96	97	-1	0	0	0	0
98	96	-1	0	0	0	0
100	105	-1	0	0	0	0
102	107	-1	0	0	0	0
104	143	-1	0	0	0	0
106	115	-1	0	0	0	0
108	132	-1	0	0	0	0
110	103	-1	0	0	0	0
112	109	-1	0	0	0	0
114	111	-1	0	0	0	0
116	123	-1	0	0	0	0
118	121	-1	0	0	0	0
120	151	-1	0	0	0	0
122	131	-1	0	0	0	0
124	156	-1	0	0	0	0
126	117	-1	0	0	0	0
128	125	-1	0	0	0	0
130	127	-1	0	0	0	0
132	140	-1	0	0	0	0
132	133	-1	0	0	0	0
133	136	-1	0	0	0	0
135	113	-1	0	0	0	0
134	135	-1	0	0	0	0
137	138	-1	0	0	0	0
139	134	-1	0	0	0	0
140	101	-1	0	0	0	0
140	141	-1	0	0	0	0
141	145	-1	0	0	0	0
142	146	-1	0	0	0	0
143	135	-1	0	0	0	0
142	143	-1	0	0	0	0
144	147	-1	0	0	0	0
148	119	-1	0	0	0	0
148	149	-1	0	0	0	0
149	153	-1	0	0	0	0
151	159	-1	0	0	0	0
150	151	-1	0	0	0	0
152	155	-1	0	0	0	0
154	150	-1	0	0	0	0
156	148	-1	0	0	0	0
156	157	-1	0	0	0	0
157	160	-1	0	0	0	0
158	163	-1	0	0	0	0
159	129	-1	0	0	0	0
158	159	-1	0	0	0	0
161	162	-1	0	0	0	0
164	165	-1	0	0	0	0
165	166	-1	0	0	0	0
166	167	-1	0	0	0	0
167	164	-1	0	0	0	0
168	169	-1	0	0	0	0
169	170	-1	0	0	0	0
170	171	-1	0	0	0	0
171	168	-1	0	0	0	0
172	173	-1	0	0	0	0
173	174	-1	0	0	0	0
174	175	-1	0	0	0	0
175	172	-1	0	0	0	0
176	177	-1	0	0	0	0
177	178	-1	0	0	0	0
178	179	-1	0	0	0	0
179	176	-1	0	0	0	0
180	181	-1	0	0	0	0
181	182	-1	0	0	0	0
182	183	-1	0	0	0	0
183	180	-1	0	0	0	0
184	185	-1	0	0	0	0
185	186	-1	0	0	0	0
186	187	-1	0	0	0	0
187	184	-1	0	0	0	0
188	189	-1	0	0	0	0
189	190	-1	0	0	0	0
190	191	-1	0	0	0	0
191	188	-1	0	0	0	0
192	193	-1	0	0	0	0
193	194	-1	0	0	0	0
194	195	-1	0	0	0	0
195	192	-1	0	0	0	0
196	197	-1	0	0	0	0
197	198	-1	0	0	0	0
198	199	-1	0	0	0	0
199	196	-1	0	0	0	0
200	201	-1	0	0	0	0
201	202	-1	0	0	0	0
202	203	-1	0	0	0	0
203	200	-1	0	0	0	0
204	205	-1	0	0	0	0
205	206	-1	0	0	0	0
206	207	-1	0	0	0	0
207	204	-1	0	0	0	0
208	209	-1	0	0	0	0
209	210	-1	0	0	0	0
210	211	-1	0	0	0	0
211	208	-1	0	0	0	0
212	213	-1	0	0	0	0
213	214	-1	0	0	0	0
214	215	-1	0	0	0	0
215	212	-1	0	0	0	0
216	217	-1	0	0	0	0
217	218	-1	0	0	0	0
218	219	-1	0	0	0	0
219	216	-1	0	0	0	0
220	221	-1	0	0	0	0
221	222	-1	0	0	0	0
222	223	-1	0	0	0	0
223	220	-1	0	0	0	0
224	225	-1	0	0	0	0
225	226	-1	0	0	0	0
226	227	-1	0	0	0	0
227	224	-1	0	0	0	0
228	229	-1	0	0	0	0
229	230	-1	0	0	0	0
230	231	-1	0	0	0	0
231	228	-1	0	0	0	0
[NumArcSegments] = 52
5	4	90	10	2	0	50	0	1
7	6	90	10	2	0	50	0	1
9	8	90	10	2	0	50	0	1
11	10	90	10	2	0	50	0	1
17	16	90	10	0	0	0	0	1
19	18	90	10	0	0	0	0	1
25	24	90	10	0	0	0	0	1
27	26	90	10	0	0	0	0	1
29	28	90	10	3	0	50	0	1
31	30	90	10	3	0	50	0	1
33	32	90	10	3	0	50	0	1
35	34	90	10	3	0	50	0	1
41	40	90	10	0	0	0	0	1
43	42	90	10	0	0	0	0	1
49	48	90	10	0	0	0	0	1
51	50	90	10	0	0	0	0	1
53	52	90	10	0	0	0	0	1
55	54	90	10	4	0	50	0	1
57	56	90	10	0	0	0	0	1
59	58	90	10	4	0	50	0	1
61	60	90	10	0	0	0	0	1
63	62	90	10	4	0	50	0	1
65	64	90	10	0	0	0	0	1
67	66	90	10	4	0	50	0	1
77	76	90	10	0	0	0	0	1
83	82	90	10	0	0	0	0	1
93	92	90	10	0	0	0	0	1
99	98	90	10	0	0	0	0	1
101	100	90	10	0	0	0	0	1
103	102	90	10	0	0	0	0	1
105	104	90	10	0	0	0	0	1
107	106	90	10	0	0	0	0	1
109	108	90	10	0	0	0	0	1
111	110	90	10	0	0	0	0	1
113	112	90	10	0	0	0	0	1
115	114	90	10	0	0	0	0	1
117	116	90	10	0	0	0	0	1
119	118	90	10	0	0	0	0	1
121	120	90	10	0	0	0	0	1
123	122	90	10	0	0	0	0	1
125	124	90	10	0	0	0	0	1
127	126	90	10	0	0	0	0	1
129	128	90	10	0	0	0	0	1
131	130	90	10	0	0	0	0	1
137	136	90	10	0	0	0	0	1
139	138	90	10	0	0	0	0	1
145	144	90	10	0	0	0	0	1
147	146	90	10	0	0	0	0	1
153	152	90	10	0	0	0	0	1
155	154	90	10	0	0	0	0	1
161	160	90	10	0	0	0	0	1
163	162	90	10	0	0	0	0	1
[NumHoles] = 3
480.5	1270	500
535	1270	500
724	1270	500
[NumBlockLabels] = 29
475	2520	1	10	0	0
480.5	2215.5	3	1	3	0
480.5	214.5	3	1	3	0
535	2340.5	3	1	3	0
535	89.5	3	1	3	0
724	2320.5	3	1	3	0
724	109.5	3	1	3	0
667.5	116	3	1	3	0
780.5	116	3	1	3	0
667.5	2314	3	1	3	0
780.5	2314	3	1	3	0
724	2319.6574999999998	4	0.68500000000000005	2	0
458.5	1070	2	2	3	0
499.5	1070	2	2	3	0
568	1070	2	2	3	0
579.5	1070	2	2	3	0
590.5	1070	2	2	3	0
601.5	1070	2	2	3	0
613.5	1070	2	2	3	0
624.5	1070	2	2	3	0
635.5	1070	2	2	3	0
646.5	1070	2	2	3	0
658.5	1070	2	2	3	0
787	1070	2	2	3	0
797	1070	2	2	3	0
809	1070	2	2	3	0
819	1070	2	2	3	0
831	1070	2	2	3	0
842	1070	2	2	3	0
