[Format]      =  1
[Precision]   =  1e-008
[MinAngle]    =  30
[DoSmartMesh] =  1
[Depth]       =  1
[LengthUnits] =  millimeters
[ProblemType] =  axisymmetric
[Coordinates] =  cartesian
[Comment]     =  "Add comments here."
[PointProps]   = 0
[BdryProps]   = 4
  <BeginBdry>
    <BdryName> = "BoundTer"
    <BdryType> = 0
    <Vs> = 180000
    <qs> = 0
    <c0> = 0
    <c1> = 0
  <EndBdry>
  <BeginBdry>
    <BdryName> = "BoundTer"
    <BdryType> = 0
    <Vs> = 0
    <qs> = 0
    <c0> = 0
    <c1> = 0
  <EndBdry>
  <BeginBdry>
    <BdryName> = "BoundTer"
    <BdryType> = 0
    <Vs> = 0
    <qs> = 0
    <c0> = 0
    <c1> = 0
  <EndBdry>
  <BeginBdry>
    <BdryName> = "core"
    <BdryType> = 0
    <Vs> = 0
    <qs> = 0
    <c0> = 0
    <c1> = 0
  <EndBdry>
[BlockProps]  = 4
  <BeginBlock>
    <BlockName> = "OilM"
    <ex> = 2.2000000000000002
    <ey> = 2.2000000000000002
    <qv> = 0
  <EndBlock>
  <BeginBlock>
    <BlockName> = "TIV"
    <ex> = 4.5
    <ey> = 4.5
    <qv> = 0
  <EndBlock>
  <BeginBlock>
    <BlockName> = "Weidmann"
    <ex> = 3.7999999999999998
    <ey> = 3.7999999999999998
    <qv> = 0
  <EndBlock>
  <BeginBlock>
    <BlockName> = "kraftsolid"
    <ex> = 3.2000000000000002
    <ey> = 3.2000000000000002
    <qv> = 0
  <EndBlock>
[ConductorProps]  = 0
[NumPoints] = 232
474.5	270	0	0	0
474	270.5	0	0	0
474	2269.5	0	0	0
474.5	2270	0	0	0
487	270.5	0	0	0
486.5	270	0	0	0
486.5	2270	0	0	0
487	2269.5	0	0	0
474	2256	0	0	0
473	2256	0	0	0
488	2256	0	0	0
487	2256	0	0	0
473	2269.5	0	0	0
474.5	2271	0	0	0
486.5	2271	0	0	0
488	2269.5	0	0	0
474	284	0	0	0
473	284	0	0	0
488	284	0	0	0
487	284	0	0	0
474.5	269	0	0	0
473	270.5	0	0	0
488	270.5	0	0	0
486.5	269	0	0	0
509.5	145	0	0	0
509	145.5	0	0	0
509	2394.5	0	0	0
509.5	2395	0	0	0
561	145.5	0	0	0
560.5	145	0	0	0
560.5	2395	0	0	0
561	2394.5	0	0	0
509	2385	0	0	0
508	2385	0	0	0
562	2385	0	0	0
561	2385	0	0	0
508	2394.5	0	0	0
509.5	2396	0	0	0
560.5	2396	0	0	0
562	2394.5	0	0	0
509	155	0	0	0
508	155	0	0	0
562	155	0	0	0
561	155	0	0	0
509.5	144	0	0	0
508	145.5	0	0	0
562	145.5	0	0	0
560.5	144	0	0	0
669.18499999999995	165	0	0	0
668	166.185	0	0	0
669.18499999999995	165.685	0	0	0
668.68499999999995	166.185	0	0	0
668	2373.8150000000001	0	0	0
669.18499999999995	2375	0	0	0
668.68499999999995	2373.8150000000001	0	0	0
669.18499999999995	2374.3150000000001	0	0	0
780	166.185	0	0	0
778.81500000000005	165	0	0	0
779.31500000000005	166.185	0	0	0
778.81500000000005	165.685	0	0	0
778.81500000000005	2375	0	0	0
780	2373.8150000000001	0	0	0
778.81500000000005	2374.3150000000001	0	0	0
779.31500000000005	2373.8150000000001	0	0	0
689	2375	0	0	0
689	2376	0	0	0
759	2376	0	0	0
759	2375	0	0	0
687	2375	0	0	0
687	2376	0	0	0
667	2364	0	0	0
668	2364	0	0	0
667	2373.8150000000001	0	0	0
669.18499999999995	2376	0	0	0
761	2375	0	0	0
761	2376	0	0	0
781	2364	0	0	0
780	2364	0	0	0
778.81500000000005	2376	0	0	0
781	2373.8150000000001	0	0	0
689	165	0	0	0
689	164	0	0	0
759	164	0	0	0
759	165	0	0	0
687	165	0	0	0
687	164	0	0	0
667	176	0	0	0
668	176	0	0	0
669.18499999999995	164	0	0	0
667	166.185	0	0	0
761	165	0	0	0
761	164	0	0	0
781	176	0	0	0
780	176	0	0	0
781	166.185	0	0	0
778.81500000000005	164	0	0	0
853.11000000000001	1670	0	0	0
852	1671.1099999999999	0	0	0
853.11000000000001	1670.6099999999999	0	0	0
852.61000000000001	1671.1099999999999	0	0	0
893	1671.1099999999999	0	0	0
891.88999999999999	1670	0	0	0
892.38999999999999	1671.1099999999999	0	0	0
891.88999999999999	1670.6099999999999	0	0	0
852	1958.8900000000001	0	0	0
853.11000000000001	1960	0	0	0
852.61000000000001	1958.8900000000001	0	0	0
853.11000000000001	1959.3900000000001	0	0	0
891.88999999999999	1960	0	0	0
893	1958.8900000000001	0	0	0
891.88999999999999	1959.3900000000001	0	0	0
892.38999999999999	1958.8900000000001	0	0	0
853.11000000000001	580.61000000000001	0	0	0
852.61000000000001	581.11000000000001	0	0	0
853.11000000000001	580	0	0	0
852	581.11000000000001	0	0	0
893	581.11000000000001	0	0	0
891.88999999999999	580	0	0	0
892.38999999999999	581.11000000000001	0	0	0
891.88999999999999	580.61000000000001	0	0	0
852	868.88999999999999	0	0	0
853.11000000000001	870	0	0	0
852.61000000000001	868.88999999999999	0	0	0
853.11000000000001	869.38999999999999	0	0	0
891.88999999999999	870	0	0	0
893	868.88999999999999	0	0	0
891.88999999999999	869.38999999999999	0	0	0
892.38999999999999	868.88999999999999	0	0	0
852	1949	0	0	0
851	1949	0	0	0
894	1949	0	0	0
893	1949	0	0	0
851	1959.5	0	0	0
852.5	1961	0	0	0
892.5	1961	0	0	0
894	1959.5	0	0	0
852	1683	0	0	0
851	1683	0	0	0
894	1683	0	0	0
893	1683	0	0	0
852.5	1669	0	0	0
851	1670.5	0	0	0
894	1670.5	0	0	0
892.5	1669	0	0	0
852	591	0	0	0
851	591	0	0	0
894	591	0	0	0
893	591	0	0	0
852.5	579	0	0	0
851	580.5	0	0	0
894	580.5	0	0	0
892.5	579	0	0	0
852	857	0	0	0
851	857	0	0	0
894	857	0	0	0
893	857	0	0	0
851	869.5	0	0	0
852.5	871	0	0	0
892.5	871	0	0	0
894	869.5	0	0	0
463	145	0	0	0
466	145	0	0	0
466	2395	0	0	0
463	2395	0	0	0
496	205	0	0	0
499	205	0	0	0
499	2455	0	0	0
496	2455	0	0	0
567	205	0	0	0
569	205	0	0	0
569	2455	0	0	0
567	2455	0	0	0
579	205	0	0	0
580	205	0	0	0
580	2455	0	0	0
579	2455	0	0	0
590	205	0	0	0
591	205	0	0	0
591	2455	0	0	0
590	2455	0	0	0
601	205	0	0	0
602	205	0	0	0
602	2455	0	0	0
601	2455	0	0	0
613	205	0	0	0
614	205	0	0	0
614	2455	0	0	0
613	2455	0	0	0
624	205	0	0	0
625	205	0	0	0
625	2455	0	0	0
624	2455	0	0	0
635	205	0	0	0
636	205	0	0	0
636	2455	0	0	0
635	2455	0	0	0
646	205	0	0	0
647	205	0	0	0
647	2455	0	0	0
646	2455	0	0	0
657	205	0	0	0
660	205	0	0	0
660	2455	0	0	0
657	2455	0	0	0
786	205	0	0	0
788	205	0	0	0
788	2455	0	0	0
786	2455	0	0	0
796	205	0	0	0
798	205	0	0	0
798	2455	0	0	0
796	2455	0	0	0
808	205	0	0	0
810	205	0	0	0
810	2455	0	0	0
808	2455	0	0	0
818	205	0	0	0
820	205	0	0	0
820	2455	0	0	0
818	2455	0	0	0
830	205	0	0	0
832	205	0	0	0
832	2455	0	0	0
830	2455	0	0	0
840	205	0	0	0
844	205	0	0	0
844	2455	0	0	0
840	2455	0	0	0
450	55	0	0	0
1425	55	0	0	0
1425	2595	0	0	0
450	2595	0	0	0
[NumSegments] = 194
0	5	-1	3	0	50	0
2	8	-1	3	0	50	0
4	19	-1	3	0	50	0
6	3	-1	3	0	50	0
8	16	-1	3	0	50	0
8	9	-1	0	0	0	0
9	12	-1	0	0	0	0
11	7	-1	3	0	50	0
10	11	-1	0	0	0	0
13	14	-1	0	0	0	0
15	10	-1	0	0	0	0
16	1	-1	3	0	50	0
16	17	-1	0	0	0	0
17	21	-1	0	0	0	0
19	11	-1	3	0	50	0
18	19	-1	0	0	0	0
20	23	-1	0	0	0	0
22	18	-1	0	0	0	0
24	29	-1	3	0	50	0
26	32	-1	3	0	50	0
28	43	-1	3	0	50	0
30	27	-1	3	0	50	0
32	40	-1	3	0	50	0
32	33	-1	0	0	0	0
33	36	-1	0	0	0	0
35	31	-1	3	0	50	0
34	35	-1	0	0	0	0
37	38	-1	0	0	0	0
39	34	-1	0	0	0	0
40	25	-1	3	0	50	0
40	41	-1	0	0	0	0
41	45	-1	0	0	0	0
43	35	-1	3	0	50	0
42	43	-1	0	0	0	0
44	47	-1	0	0	0	0
46	42	-1	0	0	0	0
48	84	-1	0	0	0	0
50	59	-1	3	0	50	0
52	71	-1	0	0	0	0
54	51	-1	3	0	50	0
56	93	-1	0	0	0	0
58	63	-1	3	0	50	0
60	74	-1	0	0	0	0
62	55	-1	3	0	50	0
64	68	-1	0	0	0	0
64	65	-1	0	0	0	0
65	66	-1	0	0	0	0
67	64	-1	0	0	0	0
66	67	-1	0	0	0	0
68	53	-1	0	0	0	0
68	69	-1	0	0	0	0
69	73	-1	0	0	0	0
71	87	-1	0	0	0	0
70	71	-1	0	0	0	0
72	70	-1	0	0	0	0
74	67	-1	0	0	0	0
74	75	-1	0	0	0	0
75	78	-1	0	0	0	0
77	61	-1	0	0	0	0
76	77	-1	0	0	0	0
79	76	-1	0	0	0	0
80	83	-1	0	0	0	0
80	81	-1	0	0	0	0
81	82	-1	0	0	0	0
83	90	-1	0	0	0	0
82	83	-1	0	0	0	0
84	80	-1	0	0	0	0
84	85	-1	0	0	0	0
85	88	-1	0	0	0	0
87	49	-1	0	0	0	0
86	87	-1	0	0	0	0
89	86	-1	0	0	0	0
90	57	-1	0	0	0	0
90	91	-1	0	0	0	0
91	95	-1	0	0	0	0
93	77	-1	0	0	0	0
92	93	-1	0	0	0	0
94	92	-1	0	0	0	0
96	101	-1	0	0	0	0
98	103	-1	0	0	0	0
100	139	-1	0	0	0	0
102	111	-1	0	0	0	0
104	128	-1	0	0	0	0
106	99	-1	0	0	0	0
108	105	-1	0	0	0	0
110	107	-1	0	0	0	0
112	119	-1	0	0	0	0
114	117	-1	0	0	0	0
116	147	-1	0	0	0	0
118	127	-1	0	0	0	0
120	152	-1	0	0	0	0
122	113	-1	0	0	0	0
124	121	-1	0	0	0	0
126	123	-1	0	0	0	0
128	136	-1	0	0	0	0
128	129	-1	0	0	0	0
129	132	-1	0	0	0	0
131	109	-1	0	0	0	0
130	131	-1	0	0	0	0
133	134	-1	0	0	0	0
135	130	-1	0	0	0	0
136	97	-1	0	0	0	0
136	137	-1	0	0	0	0
137	141	-1	0	0	0	0
138	142	-1	0	0	0	0
139	131	-1	0	0	0	0
138	139	-1	0	0	0	0
140	143	-1	0	0	0	0
144	115	-1	0	0	0	0
144	145	-1	0	0	0	0
145	149	-1	0	0	0	0
147	155	-1	0	0	0	0
146	147	-1	0	0	0	0
148	151	-1	0	0	0	0
150	146	-1	0	0	0	0
152	144	-1	0	0	0	0
152	153	-1	0	0	0	0
153	156	-1	0	0	0	0
154	159	-1	0	0	0	0
155	125	-1	0	0	0	0
154	155	-1	0	0	0	0
157	158	-1	0	0	0	0
160	161	-1	0	0	0	0
161	162	-1	0	0	0	0
162	163	-1	0	0	0	0
163	160	-1	0	0	0	0
164	165	-1	0	0	0	0
165	166	-1	0	0	0	0
166	167	-1	0	0	0	0
167	164	-1	0	0	0	0
168	169	-1	0	0	0	0
169	170	-1	0	0	0	0
170	171	-1	0	0	0	0
171	168	-1	0	0	0	0
172	173	-1	0	0	0	0
173	174	-1	0	0	0	0
174	175	-1	0	0	0	0
175	172	-1	0	0	0	0
176	177	-1	0	0	0	0
177	178	-1	0	0	0	0
178	179	-1	0	0	0	0
179	176	-1	0	0	0	0
180	181	-1	0	0	0	0
181	182	-1	0	0	0	0
182	183	-1	0	0	0	0
183	180	-1	0	0	0	0
184	185	-1	0	0	0	0
185	186	-1	0	0	0	0
186	187	-1	0	0	0	0
187	184	-1	0	0	0	0
188	189	-1	0	0	0	0
189	190	-1	0	0	0	0
190	191	-1	0	0	0	0
191	188	-1	0	0	0	0
192	193	-1	0	0	0	0
193	194	-1	0	0	0	0
194	195	-1	0	0	0	0
195	192	-1	0	0	0	0
196	197	-1	0	0	0	0
197	198	-1	0	0	0	0
198	199	-1	0	0	0	0
199	196	-1	0	0	0	0
200	201	-1	0	0	0	0
201	202	-1	0	0	0	0
202	203	-1	0	0	0	0
203	200	-1	0	0	0	0
204	205	-1	0	0	0	0
205	206	-1	0	0	0	0
206	207	-1	0	0	0	0
207	204	-1	0	0	0	0
208	209	-1	0	0	0	0
209	210	-1	0	0	0	0
210	211	-1	0	0	0	0
211	208	-1	0	0	0	0
212	213	-1	0	0	0	0
213	214	-1	0	0	0	0
214	215	-1	0	0	0	0
215	212	-1	0	0	0	0
216	217	-1	0	0	0	0
217	218	-1	0	0	0	0
218	219	-1	0	0	0	0
219	216	-1	0	0	0	0
220	221	-1	0	0	0	0
221	222	-1	0	0	0	0
222	223	-1	0	0	0	0
223	220	-1	0	0	0	0
224	225	-1	0	0	0	0
225	226	-1	0	0	0	0
226	227	-1	0	0	0	0
227	224	-1	0	0	0	0
228	229	-1	4	0	100	0
229	230	-1	4	0	100	0
230	231	-1	4	0	100	0
231	228	-1	4	0	100	0
[NumArcSegments] = 52
1	0	90	10	3	0	50	0	1
3	2	90	10	3	0	50	0	1
5	4	90	10	3	0	50	0	1
7	6	90	10	3	0	50	0	1
13	12	90	10	0	0	0	0	1
15	14	90	10	0	0	0	0	1
21	20	90	10	0	0	0	0	1
23	22	90	10	0	0	0	0	1
25	24	90	10	3	0	50	0	1
27	26	90	10	3	0	50	0	1
29	28	90	10	3	0	50	0	1
31	30	90	10	3	0	50	0	1
37	36	90	10	0	0	0	0	1
39	38	90	10	0	0	0	0	1
45	44	90	10	0	0	0	0	1
47	46	90	10	0	0	0	0	1
49	48	90	10	0	0	0	0	1
51	50	90	10	3	0	50	0	1
53	52	90	10	0	0	0	0	1
55	54	90	10	3	0	50	0	1
57	56	90	10	0	0	0	0	1
59	58	90	10	3	0	50	0	1
61	60	90	10	0	0	0	0	1
63	62	90	10	3	0	50	0	1
73	72	90	10	0	0	0	0	1
79	78	90	10	0	0	0	0	1
89	88	90	10	0	0	0	0	1
95	94	90	10	0	0	0	0	1
97	96	90	10	0	0	0	0	1
99	98	90	10	0	0	0	0	1
101	100	90	10	0	0	0	0	1
103	102	90	10	0	0	0	0	1
105	104	90	10	0	0	0	0	1
107	106	90	10	0	0	0	0	1
109	108	90	10	0	0	0	0	1
111	110	90	10	0	0	0	0	1
113	112	90	10	0	0	0	0	1
115	114	90	10	0	0	0	0	1
117	116	90	10	0	0	0	0	1
119	118	90	10	0	0	0	0	1
121	120	90	10	0	0	0	0	1
123	122	90	10	0	0	0	0	1
125	124	90	10	0	0	0	0	1
127	126	90	10	0	0	0	0	1
133	132	90	10	0	0	0	0	1
135	134	90	10	0	0	0	0	1
141	140	90	10	0	0	0	0	1
143	142	90	10	0	0	0	0	1
149	148	90	10	0	0	0	0	1
151	150	90	10	0	0	0	0	1
157	156	90	10	0	0	0	0	1
159	158	90	10	0	0	0	0	1
[NumHoles] = 3
480.5	1270	500
535	1270	500
724	1270	500
[NumBlockLabels] = 29
480.5	2270.5	3	1	3	0
480.5	269.5	3	1	3	0
535	2395.5	3	1	3	0
535	144.5	3	1	3	0
724	2375.5	3	1	3	0
724	164.5	3	1	3	0
667.5	171	3	1	3	0
780.5	171	3	1	3	0
667.5	2369	3	1	3	0
780.5	2369	3	1	3	0
724	2374.6574999999998	4	0.68500000000000005	2	0
464.5	1125	2	2	3	0
497.5	1185	2	2	3	0
568	1185	2	2	3	0
579.5	1185	2	2	3	0
590.5	1185	2	2	3	0
601.5	1185	2	2	3	0
613.5	1185	2	2	3	0
624.5	1185	2	2	3	0
635.5	1185	2	2	3	0
646.5	1185	2	2	3	0
658.5	1185	2	2	3	0
787	1185	2	2	3	0
797	1185	2	2	3	0
809	1185	2	2	3	0
819	1185	2	2	3	0
831	1185	2	2	3	0
842	1185	2	2	3	0
687.5	2520	1	10	0	0
